WARNING: Database file from DATABASE keyword is used; command line argument ignored.
   Input file: input\phreeqc_de_punt_input.in
  Output file: output\phreeqc_de_punt_output.out
Database file: C:\Program Files\USGS\phreeqc-3.7.0-15749-x64\database\Stimela.dat

------------------
Reading data base.
------------------

	SOLUTION_MASTER_SPECIES												
	SOLUTION_SPECIES												
	PHASES												
	EXCHANGE_MASTER_SPECIES												
	EXCHANGE_SPECIES												
	SURFACE_MASTER_SPECIES												
	SURFACE_SPECIES												
	RATES												
	END												
------------------------------------
Reading input data for simulation 1.
------------------------------------

	DATABASE C:\Program Files\USGS\phreeqc-3.7.0-15749-x64\database\Stimela.dat
	SOLUTION_MASTER_SPECIES
		Turb		Turb	0.0	Turb		1.0
		Doc		Doc	0.0	Doc		12.0111
		Uvab		Uvab	0.0	Uvab		1.0
	SOLUTION_SPECIES
		Turb	= Turb
		Doc	= Doc
		Uvab	= Uvab
	PRINT
		alkalinity		true
	SELECTED_OUTPUT 1
		file			output/selected.csv
		reset			false
		high_precision 	true
		simulation		true
		state			true
		solution		true
		step			true
		ph			true
		pe			true
		temperature		true
		alkalinity		true
		totals			C   Ca Mg Al Fe  Mn  S  P Na Cl
		totals			[N-3] N(3) N(5) K F Si
		totals			Turb Doc Uvab
		molalities		O2  Oxg  CO2  HCO3-  CO3-2  Ca+2  CaHCO3+  CaCO3  CaSO4  Mg+2  MgHCO3+ MgCO3 MgSO4 SO4-2  NaHCO3  NaCO3- H+ OH-  PO4-3 HPO4-2 H2PO4-
		saturation_indices	Calcite Aragonite  Gypsum  Anhydrite  Dolomite Hydroxyapatite
		saturation_indices	O2(g)  Ntg(g)  CO2(g)  H2O(g)  Oxg(g)
	USER_PUNCH
		headings	Ion_Str  Conduct  Rho   TotWat   Charge_Err   Charge_Bal   Cation  Anion pO2 pNtg pCO2 pH2O CCPP Desc
		start
			10	PUNCH MU
			20	PUNCH SC/10
			30	PUNCH RHO
			40 	PUNCH TOT("water")
			50	PUNCH PERCENT_ERROR
			60	PUNCH CHARGE_BALANCE
			70	Anion = ( TOT("charge")/(PERCENT_ERROR/100) - TOT("charge") )/2
			80	PUNCH ( Anion + TOT("charge") )
			90	PUNCH Anion
			100	PUNCH PR_P("O2(g)") PR_P("Ntg(g)") PR_P("CO2(g)") PR_P("H2O(g)")
			110	PUNCH EQUI_DELTA("Calcite")/TOT("water")
			120	PUNCH DESCRIPTION
		End
------------------
End of simulation.
------------------

------------------------------------
Reading input data for simulation 2.
------------------------------------

	SOLUTION_SPREAD	
		units	mg/L
		redox		O(-2)/O(0)								
		water    		1
	number	temp	pH	O(0)	Turb	Uvab	Si	Doc	Ca	Mg	Na	K	Al	Fe	Mn	[N-3]	Alkalinity	Cl	N(+5)	[N+3]	S(6)	F	P 	density	Oxg	Ntg
		 	 	as O			as Si	as C	as Ca	as Mg	as Na	as K	ug/l as Al	as Fe	as Mn	as N	as HCO3	as Cl	as N	as N	as SO4	as F	ug/l as P
	1	17.2110000	7.5180000	7.5500000	7.1400000	32.6700000	3.4280000	9.4420000	44.4870000	5.1800000	18.6000000	2.8800000	87.7280000	0.6580000	0.0760000	0.0620000	145.2500000	25.3000000	0.4220000	1E-7	12.6000000	0.0770000	34.0800000	1	1 Oxg(g)  -0.6819	1 Ntg(g) -0.1024	
	END
-------------------------------------------
Beginning of initial solution calculations.
-------------------------------------------

Initial solution 1.	

-----------------------------Solution composition------------------------------

	Elements           Molality       Moles

	Al                3.252e-06   3.252e-06
	Alkalinity        2.381e-03   2.381e-03
	Ca                1.110e-03   1.110e-03
	Cl                7.139e-04   7.139e-04
	Doc               7.864e-04   7.864e-04
	F                 4.054e-06   4.054e-06
	Fe                1.179e-05   1.179e-05
	K                 7.368e-05   7.368e-05
	Mg                2.132e-04   2.132e-04
	Mn                1.384e-06   1.384e-06
	N(5)              3.014e-05   3.014e-05
	Na                8.093e-04   8.093e-04
	Ntg               5.918e-04   5.918e-04  Equilibrium with Ntg(g)
	O(0)              4.721e-04   4.721e-04
	Oxg               3.063e-04   3.063e-04  Equilibrium with Oxg(g)
	P                 1.101e-06   1.101e-06
	S(6)              1.312e-04   1.312e-04
	Si                1.221e-04   1.221e-04
	Turb              7.142e-03   7.142e-03
	Uvab              3.268e-02   3.268e-02
	[N+3]             7.142e-12   7.142e-12
	[N-3]             4.428e-06   4.428e-06

----------------------------Description of solution----------------------------

                                       pH  =   7.518    
                                       pe  =   4.000    
      Specific Conductance (µS/cm,  17°C)  = 289
                          Density (g/cm³)  =   0.99900
                               Volume (L)  =   1.00136
                        Activity of water  =   0.999
                 Ionic strength (mol/kgw)  =   4.796e-03
                       Mass of water (kg)  =   1.000e+00
                    Total carbon (mol/kg)  =   2.515e-03
                       Total CO2 (mol/kg)  =   2.515e-03
                         Temperature (°C)  =  17.21
                  Electrical balance (eq)  =   1.659e-04
 Percent error, 100*(Cat-|An|)/(Cat+|An|)  =   2.44
                               Iterations  =   8
                                  Total H  = 1.110215e+02
                                  Total O  = 5.551830e+01

---------------------------------Redox couples---------------------------------

	Redox couple             pe  Eh (volts)

	O(-2)/O(0)          13.7581      0.7926

----------------------------Distribution of species----------------------------

                                               Log       Log       Log    mole V
   Species          Molality    Activity  Molality  Activity     Gamma   cm³/mol

   OH-             1.936e-07   1.797e-07    -6.713    -6.745    -0.032     -4.45
   H+              3.243e-08   3.034e-08    -7.489    -7.518    -0.029      0.00
   H2O             5.551e+01   9.992e-01     1.744    -0.000     0.000     18.04
Al            3.252e-06
   Al(OH)4-        3.179e-06   2.956e-06    -5.498    -5.529    -0.032     (0)  
   Al(OH)3         5.195e-08   5.201e-08    -7.284    -7.284     0.000     (0)  
   Al(OH)2+        2.107e-08   1.962e-08    -7.676    -7.707    -0.031     (0)  
   AlOH+2          2.063e-10   1.549e-10    -9.686    -9.810    -0.124    -27.36
   AlF2+           5.426e-11   5.052e-11   -10.266   -10.297    -0.031     (0)  
   AlF+2           3.751e-11   2.818e-11   -10.426   -10.550    -0.124     (0)  
   AlF3            2.350e-12   2.352e-12   -11.629   -11.629     0.000     (0)  
   Al+3            1.445e-12   7.929e-13   -11.840   -12.101    -0.261    -41.52
   AlSO4+          2.121e-13   1.972e-13   -12.673   -12.705    -0.032     (0)  
   AlF4-           3.749e-15   3.485e-15   -14.426   -14.458    -0.032     (0)  
   Al(SO4)2-       5.639e-16   5.243e-16   -15.249   -15.280    -0.032     (0)  
   AlHSO4+2        6.697e-22   4.993e-22   -21.174   -21.302    -0.128     (0)  
C(4)          2.515e-03
   HCO3-           2.317e-03   2.157e-03    -2.635    -2.666    -0.031     24.05
   CO2             1.649e-04   1.651e-04    -3.783    -3.782     0.000     31.17
   CaHCO3+         2.070e-05   1.929e-05    -4.684    -4.715    -0.031      9.37
   MgHCO3+         4.099e-06   3.808e-06    -5.387    -5.419    -0.032      5.25
   CO3-2           3.731e-06   2.802e-06    -5.428    -5.552    -0.124     -5.96
   CaCO3           3.321e-06   3.325e-06    -5.479    -5.478     0.000    -14.63
   NaHCO3          9.525e-07   9.536e-07    -6.021    -6.021     0.000      1.80
   MgCO3           3.679e-07   3.683e-07    -6.434    -6.434     0.000    -17.08
   MnCO3           1.736e-07   1.738e-07    -6.760    -6.760     0.000     (0)  
   MnHCO3+         1.613e-07   1.501e-07    -6.792    -6.824    -0.031     (0)  
   NaCO3-          2.819e-08   2.620e-08    -7.550    -7.582    -0.032     -1.84
   FeHCO3+         1.753e-16   1.629e-16   -15.756   -15.788    -0.032     (0)  
   FeCO3           5.071e-17   5.077e-17   -16.295   -16.294     0.000     (0)  
Ca            1.110e-03
   Ca+2            1.074e-03   8.066e-04    -2.969    -3.093    -0.124    -18.14
   CaHCO3+         2.070e-05   1.929e-05    -4.684    -4.715    -0.031      9.37
   CaSO4           1.177e-05   1.179e-05    -4.929    -4.929     0.000      7.17
   CaCO3           3.321e-06   3.325e-06    -5.479    -5.478     0.000    -14.63
   CaHPO4          1.737e-07   1.739e-07    -6.760    -6.760     0.000     (0)  
   CaPO4-          1.253e-08   1.166e-08    -7.902    -7.933    -0.031     (0)  
   CaOH+           4.745e-09   4.409e-09    -8.324    -8.356    -0.032     (0)  
   CaH2PO4+        4.434e-09   4.128e-09    -8.353    -8.384    -0.031     (0)  
   CaHSO4+         2.279e-12   2.117e-12   -11.642   -11.674    -0.032     (0)  
Cl            7.139e-04
   Cl-             7.139e-04   6.630e-04    -3.146    -3.178    -0.032     17.82
   MnCl+           2.266e-09   2.109e-09    -8.645    -8.676    -0.031     -5.30
   MnCl2           6.096e-13   6.103e-13   -12.215   -12.214     0.000     96.61
   MnCl3-          1.198e-16   1.114e-16   -15.922   -15.953    -0.031     43.67
   FeCl+2          5.527e-17   4.142e-17   -16.257   -16.383    -0.125     (0)  
   FeCl+           7.438e-19   6.911e-19   -18.129   -18.160    -0.032     (0)  
   FeCl2+          1.699e-19   1.581e-19   -18.770   -18.801    -0.031     (0)  
   FeCl3           1.047e-23   1.048e-23   -22.980   -22.980     0.000     (0)  
Doc           7.864e-04
   Doc             7.864e-04   7.872e-04    -3.104    -3.104     0.000     (0)  
F             4.054e-06
   F-              4.017e-06   3.729e-06    -5.396    -5.428    -0.032     -1.41
   MgF+            3.558e-08   3.308e-08    -7.449    -7.480    -0.032    -10.54
   NaF             1.611e-09   1.612e-09    -8.793    -8.793     0.000      6.93
   HF              1.476e-10   1.478e-10    -9.831    -9.830     0.000     12.10
   AlF2+           5.426e-11   5.052e-11   -10.266   -10.297    -0.031     (0)  
   AlF+2           3.751e-11   2.818e-11   -10.426   -10.550    -0.124     (0)  
   MnF+            2.165e-11   2.014e-11   -10.665   -10.696    -0.031     (0)  
   AlF3            2.350e-12   2.352e-12   -11.629   -11.629     0.000     (0)  
   FeF+2           1.860e-14   1.394e-14   -13.730   -13.856    -0.125     (0)  
   AlF4-           3.749e-15   3.485e-15   -14.426   -14.458    -0.032     (0)  
   HF2-            2.126e-15   1.976e-15   -14.672   -14.704    -0.032     21.67
   FeF2+           2.023e-15   1.882e-15   -14.694   -14.725    -0.031     (0)  
   FeF3            1.081e-17   1.082e-17   -16.966   -16.966     0.000     (0)  
   FeF+            3.031e-20   2.816e-20   -19.518   -19.550    -0.032     (0)  
   SiF6-2          1.173e-36   8.791e-37   -35.931   -36.056    -0.125     42.12
Fe(2)         1.245e-15
   Fe+2            1.002e-15   7.552e-16   -14.999   -15.122    -0.123    -22.56
   FeHCO3+         1.753e-16   1.629e-16   -15.756   -15.788    -0.032     (0)  
   FeCO3           5.071e-17   5.077e-17   -16.295   -16.294     0.000     (0)  
   FeSO4           1.011e-17   1.012e-17   -16.995   -16.995     0.000     28.13
   FeOH+           4.650e-18   4.327e-18   -17.333   -17.364    -0.031     (0)  
   FeHPO4          1.371e-18   1.372e-18   -17.863   -17.863     0.000     (0)  
   FeCl+           7.438e-19   6.911e-19   -18.129   -18.160    -0.032     (0)  
   FeH2PO4+        9.484e-20   8.829e-20   -19.023   -19.054    -0.031     (0)  
   FeF+            3.031e-20   2.816e-20   -19.518   -19.550    -0.032     (0)  
   Fe(OH)2         6.042e-22   6.049e-22   -21.219   -21.218     0.000     (0)  
   FeHSO4+         2.133e-24   1.982e-24   -23.671   -23.703    -0.032     (0)  
   Fe(OH)3-        7.354e-25   6.843e-25   -24.133   -24.165    -0.031     (0)  
Fe(3)         1.179e-05
   Fe(OH)3         8.525e-06   8.534e-06    -5.069    -5.069     0.000     (0)  
   Fe(OH)2+        3.062e-06   2.850e-06    -5.514    -5.545    -0.031     (0)  
   Fe(OH)4-        1.996e-07   1.859e-07    -6.700    -6.731    -0.031     (0)  
   FeOH+2          4.724e-10   3.540e-10    -9.326    -9.451    -0.125     (0)  
   FeF+2           1.860e-14   1.394e-14   -13.730   -13.856    -0.125     (0)  
   Fe+3            4.858e-15   2.666e-15   -14.314   -14.574    -0.261     (0)  
   FeSO4+          2.296e-15   2.136e-15   -14.639   -14.670    -0.031     (0)  
   FeF2+           2.023e-15   1.882e-15   -14.694   -14.725    -0.031     (0)  
   FeHPO4+         2.712e-16   2.523e-16   -15.567   -15.598    -0.031     (0)  
   FeH2PO4+2       2.228e-16   1.674e-16   -15.652   -15.776    -0.124     (0)  
   FeCl+2          5.527e-17   4.142e-17   -16.257   -16.383    -0.125     (0)  
   Fe2(OH)2+4      1.519e-17   4.694e-18   -16.818   -17.328    -0.510     (0)  
   FeF3            1.081e-17   1.082e-17   -16.966   -16.966     0.000     (0)  
   Fe(SO4)2-       4.254e-18   3.953e-18   -17.371   -17.403    -0.032     (0)  
   FeCl2+          1.699e-19   1.581e-19   -18.770   -18.801    -0.031     (0)  
   Fe3(OH)4+5      3.665e-20   5.847e-21   -19.436   -20.233    -0.797     (0)  
   FeHSO4+2        2.358e-22   1.758e-22   -21.627   -21.755    -0.128     (0)  
   FeCl3           1.047e-23   1.048e-23   -22.980   -22.980     0.000     (0)  
H(0)          0.000e+00
   H2              0.000e+00   0.000e+00   -45.668   -45.668     0.000     28.61
K             7.368e-05
   K+              7.365e-05   6.838e-05    -4.133    -4.165    -0.032      8.76
   KSO4-           3.916e-08   3.646e-08    -7.407    -7.438    -0.031     33.90
   KHPO4-          6.537e-11   6.086e-11   -10.185   -10.216    -0.031     38.76
Mg            2.132e-04
   Mg+2            2.061e-04   1.552e-04    -3.686    -3.809    -0.123    -21.42
   MgHCO3+         4.099e-06   3.808e-06    -5.387    -5.419    -0.032      5.25
   MgSO4           2.581e-06   2.583e-06    -5.588    -5.588     0.000      5.51
   MgCO3           3.679e-07   3.683e-07    -6.434    -6.434     0.000    -17.08
   MgHPO4          4.518e-08   4.523e-08    -7.345    -7.345     0.000     (0)  
   MgF+            3.558e-08   3.308e-08    -7.449    -7.480    -0.032    -10.54
   MgOH+           9.667e-09   9.014e-09    -8.015    -8.045    -0.030     (0)  
   MgPO4-          3.251e-09   3.027e-09    -8.488    -8.519    -0.031     (0)  
   MgH2PO4+        1.086e-09   1.011e-09    -8.964    -8.995    -0.031     (0)  
Mn(2)         1.384e-06
   Mn+2            1.036e-06   7.808e-07    -5.985    -6.107    -0.123    -20.46
   MnCO3           1.736e-07   1.738e-07    -6.760    -6.760     0.000     (0)  
   MnHCO3+         1.613e-07   1.501e-07    -6.792    -6.824    -0.031     (0)  
   MnSO4           1.039e-08   1.040e-08    -7.983    -7.983     0.000     26.41
   MnCl+           2.266e-09   2.109e-09    -8.645    -8.676    -0.031     -5.30
   MnOH+           3.701e-10   3.444e-10    -9.432    -9.463    -0.031     (0)  
   MnF+            2.165e-11   2.014e-11   -10.665   -10.696    -0.031     (0)  
   MnCl2           6.096e-13   6.103e-13   -12.215   -12.214     0.000     96.61
   Mn(NO3)2        2.470e-15   2.473e-15   -14.607   -14.607     0.000     43.33
   MnCl3-          1.198e-16   1.114e-16   -15.922   -15.953    -0.031     43.67
   Mn(OH)3-        4.751e-19   4.420e-19   -18.323   -18.355    -0.031     (0)  
Mn(3)         7.834e-19
   Mn+3            7.834e-19   4.299e-19   -18.106   -18.367    -0.261     (0)  
N(5)          3.014e-05
   NO3-            3.014e-05   2.795e-05    -4.521    -4.554    -0.033     28.69
   Mn(NO3)2        2.470e-15   2.473e-15   -14.607   -14.607     0.000     43.33
Na            8.093e-04
   Na+             8.080e-04   7.514e-04    -3.093    -3.124    -0.032     -1.88
   NaHCO3          9.525e-07   9.536e-07    -6.021    -6.021     0.000      1.80
   NaSO4-          3.355e-07   3.123e-07    -6.474    -6.505    -0.031     14.23
   NaCO3-          2.819e-08   2.620e-08    -7.550    -7.582    -0.032     -1.84
   NaF             1.611e-09   1.612e-09    -8.793    -8.793     0.000      6.93
   NaHPO4-         7.184e-10   6.688e-10    -9.144    -9.175    -0.031     33.97
   NaOH            1.349e-20   1.350e-20   -19.870   -19.870     0.000     (0)  
Ntg           5.918e-04
   Ntg             5.918e-04   5.925e-04    -3.228    -3.227     0.000     29.29
O(0)          4.721e-04
   O2              2.360e-04   2.363e-04    -3.627    -3.627     0.000     29.73
Oxg           3.063e-04
   Oxg             3.063e-04   3.066e-04    -3.514    -3.513     0.000     29.73
P             1.101e-06
   HPO4-2          6.091e-07   4.565e-07    -6.215    -6.341    -0.125      7.05
   H2PO4-          2.506e-07   2.333e-07    -6.601    -6.632    -0.031     33.41
   CaHPO4          1.737e-07   1.739e-07    -6.760    -6.760     0.000     (0)  
   MgHPO4          4.518e-08   4.523e-08    -7.345    -7.345     0.000     (0)  
   CaPO4-          1.253e-08   1.166e-08    -7.902    -7.933    -0.031     (0)  
   CaH2PO4+        4.434e-09   4.128e-09    -8.353    -8.384    -0.031     (0)  
   MgPO4-          3.251e-09   3.027e-09    -8.488    -8.519    -0.031     (0)  
   MgH2PO4+        1.086e-09   1.011e-09    -8.964    -8.995    -0.031     (0)  
   NaHPO4-         7.184e-10   6.688e-10    -9.144    -9.175    -0.031     33.97
   KHPO4-          6.537e-11   6.086e-11   -10.185   -10.216    -0.031     38.76
   PO4-3           1.121e-11   5.781e-12   -10.950   -11.238    -0.288    -22.29
   H3PO4           9.462e-13   9.473e-13   -12.024   -12.024     0.000     46.93
   FeHPO4+         2.712e-16   2.523e-16   -15.567   -15.598    -0.031     (0)  
   FeH2PO4+2       2.228e-16   1.674e-16   -15.652   -15.776    -0.124     (0)  
   FeHPO4          1.371e-18   1.372e-18   -17.863   -17.863     0.000     (0)  
   FeH2PO4+        9.484e-20   8.829e-20   -19.023   -19.054    -0.031     (0)  
S(6)          1.312e-04
   SO4-2           1.165e-04   8.725e-05    -3.934    -4.059    -0.125     13.45
   CaSO4           1.177e-05   1.179e-05    -4.929    -4.929     0.000      7.17
   MgSO4           2.581e-06   2.583e-06    -5.588    -5.588     0.000      5.51
   NaSO4-          3.355e-07   3.123e-07    -6.474    -6.505    -0.031     14.23
   KSO4-           3.916e-08   3.646e-08    -7.407    -7.438    -0.031     33.90
   MnSO4           1.039e-08   1.040e-08    -7.983    -7.983     0.000     26.41
   [N-3]H4SO4-     4.910e-09   4.562e-09    -8.309    -8.341    -0.032     35.04
   HSO4-           2.350e-10   2.183e-10    -9.629    -9.661    -0.032     39.70
   CaHSO4+         2.279e-12   2.117e-12   -11.642   -11.674    -0.032     (0)  
   AlSO4+          2.121e-13   1.972e-13   -12.673   -12.705    -0.032     (0)  
   FeSO4+          2.296e-15   2.136e-15   -14.639   -14.670    -0.031     (0)  
   Al(SO4)2-       5.639e-16   5.243e-16   -15.249   -15.280    -0.032     (0)  
   FeSO4           1.011e-17   1.012e-17   -16.995   -16.995     0.000     28.13
   Fe(SO4)2-       4.254e-18   3.953e-18   -17.371   -17.403    -0.032     (0)  
   AlHSO4+2        6.697e-22   4.993e-22   -21.174   -21.302    -0.128     (0)  
   FeHSO4+2        2.358e-22   1.758e-22   -21.627   -21.755    -0.128     (0)  
   FeHSO4+         2.133e-24   1.982e-24   -23.671   -23.703    -0.032     (0)  
Si            1.221e-04
   H4SiO4          1.216e-04   1.218e-04    -3.915    -3.915     0.000     52.81
   H3SiO4-         4.789e-07   4.449e-07    -6.320    -6.352    -0.032     27.77
   H2SiO4-2        7.806e-13   5.864e-13   -12.108   -12.232    -0.124     (0)  
   SiF6-2          1.173e-36   8.791e-37   -35.931   -36.056    -0.125     42.12
Turb          7.142e-03
   Turb            7.142e-03   7.150e-03    -2.146    -2.146     0.000     (0)  
Uvab          3.268e-02
   Uvab            3.268e-02   3.272e-02    -1.486    -1.485     0.000     (0)  
[N+3]         7.142e-12
   [N+3]O2-        7.142e-12   6.624e-12   -11.146   -11.179    -0.033     24.53
[N-3]         4.428e-06
   [N-3]H4+        4.380e-06   4.059e-06    -5.359    -5.392    -0.033     17.71
   [N-3]H3         4.327e-08   4.331e-08    -7.364    -7.363     0.000     24.03
   [N-3]H4SO4-     4.910e-09   4.562e-09    -8.309    -8.341    -0.032     35.04

--------------------------Distribution of alkalinity---------------------------

	Total alkalinity (eq/kgw)  =   2.381e-03

	Species          Alkalinity    Molality   Alk/Mol

	HCO3-             2.317e-03   2.317e-03      1.00
	CaHCO3+           2.070e-05   2.070e-05      1.00
	Al(OH)4-          1.272e-05   3.179e-06      4.00
	Fe(OH)3           8.525e-06   8.525e-06      1.00
	CO3-2             7.462e-06   3.731e-06      2.00
	CaCO3             6.642e-06   3.321e-06      2.00
	MgHCO3+           4.099e-06   4.099e-06      1.00
	NaHCO3            9.525e-07   9.525e-07      1.00
	MgCO3             7.357e-07   3.679e-07      2.00
	HPO4-2            6.091e-07   6.091e-07      1.00
	H3SiO4-           4.789e-07   4.789e-07      1.00
	Fe(OH)4-          3.993e-07   1.996e-07      2.00
	MnCO3             3.472e-07   1.736e-07      2.00
	OH-               1.936e-07   1.936e-07      1.00
	CaHPO4            1.737e-07   1.737e-07      1.00
	MnHCO3+           1.613e-07   1.613e-07      1.00
	Al(OH)3           1.559e-07   5.195e-08      3.00
	NaCO3-            5.638e-08   2.819e-08      2.00
	MgHPO4            4.518e-08   4.518e-08      1.00
	[N-3]H3           4.327e-08   4.327e-08      1.00
	Al(OH)2+          4.214e-08   2.107e-08      2.00
	H+               -3.243e-08   3.243e-08     -1.00
	CaPO4-            2.505e-08   1.253e-08      2.00
	MgOH+             9.667e-09   9.667e-09      1.00
	MgPO4-            6.502e-09   3.251e-09      2.00
	CaOH+             4.745e-09   4.745e-09      1.00
	NaHPO4-           7.184e-10   7.184e-10      1.00
	FeOH+2           -4.724e-10   4.724e-10     -1.00
	MnOH+             3.701e-10   3.701e-10      1.00
	HSO4-            -2.350e-10   2.350e-10     -1.00
	AlOH+2            2.063e-10   2.063e-10      1.00
	HF               -1.476e-10   1.476e-10     -1.00
	KHPO4-            6.537e-11   6.537e-11      1.00
	PO4-3             2.243e-11   1.121e-11      2.00
	CaHSO4+          -2.279e-12   2.279e-12     -1.00
	H2SiO4-2          1.561e-12   7.806e-13      2.00
	H3PO4            -9.462e-13   9.462e-13     -1.00
	FeF+2            -3.721e-14   1.860e-14     -2.00
	Fe+3             -9.716e-15   4.858e-15     -2.00
	FeSO4+           -4.593e-15   2.296e-15     -2.00
	FeF2+            -4.045e-15   2.023e-15     -2.00
	HF2-             -2.126e-15   2.126e-15     -1.00
	FeH2PO4+2        -4.457e-16   2.228e-16     -2.00
	FeHPO4+          -2.712e-16   2.712e-16     -1.00
	FeHCO3+           1.753e-16   1.753e-16      1.00
	FeCl+2           -1.105e-16   5.527e-17     -2.00
	FeCO3             1.014e-16   5.071e-17      2.00
	Fe2(OH)2+4       -3.039e-17   1.519e-17     -2.00
	FeF3             -2.162e-17   1.081e-17     -2.00
	Fe(SO4)2-        -8.507e-18   4.254e-18     -2.00
	FeOH+             4.650e-18   4.650e-18      1.00
	Mn(OH)3-          1.425e-18   4.751e-19      3.00
	FeHPO4            1.371e-18   1.371e-18      1.00
	FeCl2+           -3.398e-19   1.699e-19     -2.00
	Fe3(OH)4+5       -7.330e-20   3.665e-20     -2.00
	NaOH              1.349e-20   1.349e-20      1.00
	Fe(OH)2           1.208e-21   6.042e-22      2.00
	FeHSO4+2         -7.073e-22   2.358e-22     -3.00
	AlHSO4+2         -6.697e-22   6.697e-22     -1.00
	FeCl3            -2.094e-23   1.047e-23     -2.00
	Fe(OH)3-          2.206e-24   7.354e-25      3.00
	FeHSO4+          -2.133e-24   2.133e-24     -1.00
	SiF6-2           -4.692e-36   1.173e-36     -4.00

------------------------------Saturation indices-------------------------------

  Phase               SI** log IAP   log K(290 K,   1 atm)

  [N-3]H3(g)       -9.33     -7.36    1.96  [N-3]H3
  Al(OH)3(a)       -0.87     10.45   11.32  Al(OH)3
  Albite           -1.88    -20.39  -18.51  NaAlSi3O8
  Alunite          -3.07     -3.48   -0.41  KAl3(SO4)2(OH)6
  Anhydrite        -2.96     -7.15   -4.19  CaSO4
  Anorthite        -2.04    -21.98  -19.94  CaAl2Si2O8
  Aragonite        -0.36     -8.65   -8.29  CaCO3
  Ca-Montmorillonite   3.38    -42.79  -46.17  Ca0.165Al2.33Si3.67O10(OH)2
  Calcite          -0.21     -8.65   -8.44  CaCO3
  Chalcedony       -0.27     -3.91   -3.64  SiO2
  Chlorite(14A)    -6.06     65.30   71.36  Mg5Al2Si3O10(OH)8
  Chrysotile       -7.34     25.85   33.19  Mg3Si2O5(OH)4
  CO2(g)           -2.42     -3.78   -1.37  CO2
  Dolomite         -1.10    -18.01  -16.90  CaMg(CO3)2
  Fe(OH)3(a)        3.09      7.98    4.89  Fe(OH)3
  Fluorite         -3.25    -13.95  -10.70  CaF2
  Gibbsite          1.89     10.45    8.56  Al(OH)3
  Goethite          8.69      7.98   -0.72  FeOOH
  Gypsum           -2.57     -7.15   -4.58  CaSO4:2H2O
  H2(g)           -42.59    -45.67   -3.08  H2
  H2O(g)           -1.71     -0.00    1.71  H2O
  Halite           -7.87     -6.30    1.56  NaCl
  Hausmannite       6.33     69.34   63.01  Mn3O4
  Hematite         19.36     15.96   -3.40  Fe2O3
  Hydroxyapatite   -1.71     -4.42   -2.71  Ca5(PO4)3OH
  Illite            2.45    -38.89  -41.34  K0.6Mg0.25Al2.3Si3.5O10(OH)2
  Jarosite-K       -2.31    -10.90   -8.59  KFe3(SO4)2(OH)6
  K-feldspar       -0.26    -21.44  -21.18  KAlSi3O8
  K-mica            9.10     22.97   13.87  KAl3Si3O10(OH)2
  Kaolinite         4.95     13.08    8.13  Al2Si2O5(OH)4
  Manganite         4.86     30.20   25.34  MnOOH
  Melanterite     -16.88    -19.18   -2.31  FeSO4:7H2O
  Ntg(g)           -0.10     -3.23   -3.12  Ntg	 Pressure   0.8 atm, phi 1.000
  O2(g)            -0.80     -3.63   -2.83  O2
  Oxg(g)           -0.68     -3.51   -2.83  Oxg	 Pressure   0.2 atm, phi 1.000
  Pyrochroite      -6.27      8.93   15.20  Mn(OH)2
  Pyrolusite        8.82     51.48   42.66  MnO2:H2O
  Quartz            0.18     -3.91   -4.10  SiO2
  Rhodochrosite    -0.56    -11.66  -11.10  MnCO3
  Sepiolite        -5.26     10.71   15.97  Mg2Si3O7.5OH:3H2O
  Sepiolite(d)     -7.95     10.71   18.66  Mg2Si3O7.5OH:3H2O
  Siderite         -9.83    -20.67  -10.84  FeCO3
  SiO2(a)          -1.14     -3.91   -2.78  SiO2
  Sylvite          -8.20     -7.34    0.86  KCl
  Talc             -4.29     18.02   22.31  Mg3Si4O10(OH)2
  Vaterite         -0.79     -8.65   -7.85  CaCO3
  Vivianite       -31.84    -67.84  -36.00  Fe3(PO4)2:8H2O

**For a gas, SI = log10(fugacity). Fugacity = pressure * phi / 1 atm.
  For ideal gases, phi = 1.

------------------
End of simulation.
------------------

------------------------------------
Reading input data for simulation 3.
------------------------------------

	TITLE	Calculation pe and pH at field temperature
		Use solution	1
		EQUILIBRIUM_PHASES 1 
		Save solution	1
	END
-----
TITLE
-----

	Calculation pe and pH at field temperature

-----------------------------------------
Beginning of batch-reaction calculations.
-----------------------------------------

Reaction step 1.

Using solution 1.	
Using pure phase assemblage 1.	

-----------------------------Solution composition------------------------------

	Elements           Molality       Moles

	Al                3.252e-06   3.252e-06
	C                 2.515e-03   2.515e-03
	Ca                1.110e-03   1.110e-03
	Cl                7.139e-04   7.139e-04
	Doc               7.864e-04   7.864e-04
	F                 4.054e-06   4.054e-06
	Fe                1.179e-05   1.179e-05
	K                 7.368e-05   7.368e-05
	Mg                2.132e-04   2.132e-04
	Mn                1.384e-06   1.384e-06
	N                 3.014e-05   3.014e-05
	Na                8.093e-04   8.093e-04
	Ntg               5.918e-04   5.918e-04
	Oxg               3.063e-04   3.063e-04
	P                 1.101e-06   1.101e-06
	S                 1.312e-04   1.312e-04
	Si                1.221e-04   1.221e-04
	Turb              7.142e-03   7.142e-03
	Uvab              3.268e-02   3.268e-02
	[N+3]             7.142e-12   7.142e-12
	[N-3]             4.428e-06   4.428e-06

----------------------------Description of solution----------------------------

                                       pH  =   7.518      Charge balance
                                       pe  =  13.758      Adjusted to redox equilibrium
      Specific Conductance (µS/cm,  17°C)  = 289
                          Density (g/cm³)  =   0.99900
                               Volume (L)  =   1.00136
                        Activity of water  =   0.999
                 Ionic strength (mol/kgw)  =   4.796e-03
                       Mass of water (kg)  =   1.000e+00
                 Total alkalinity (eq/kg)  =   2.381e-03
                       Total CO2 (mol/kg)  =   2.515e-03
                         Temperature (°C)  =  17.21
                  Electrical balance (eq)  =   1.659e-04
 Percent error, 100*(Cat-|An|)/(Cat+|An|)  =   2.44
                               Iterations  =  26
                                  Total H  = 1.110215e+02
                                  Total O  = 5.551830e+01

----------------------------Distribution of species----------------------------

                                               Log       Log       Log    mole V
   Species          Molality    Activity  Molality  Activity     Gamma   cm³/mol

   OH-             1.936e-07   1.797e-07    -6.713    -6.745    -0.032     -4.45
   H+              3.243e-08   3.034e-08    -7.489    -7.518    -0.029      0.00
   H2O             5.551e+01   9.992e-01     1.744    -0.000     0.000     18.04
Al            3.252e-06
   Al(OH)4-        3.179e-06   2.956e-06    -5.498    -5.529    -0.032     (0)  
   Al(OH)3         5.195e-08   5.201e-08    -7.284    -7.284     0.000     (0)  
   Al(OH)2+        2.107e-08   1.962e-08    -7.676    -7.707    -0.031     (0)  
   AlOH+2          2.063e-10   1.549e-10    -9.686    -9.810    -0.124    -27.36
   AlF2+           5.426e-11   5.052e-11   -10.266   -10.297    -0.031     (0)  
   AlF+2           3.751e-11   2.818e-11   -10.426   -10.550    -0.124     (0)  
   AlF3            2.350e-12   2.352e-12   -11.629   -11.629     0.000     (0)  
   Al+3            1.445e-12   7.929e-13   -11.840   -12.101    -0.261    -41.52
   AlSO4+          2.121e-13   1.972e-13   -12.673   -12.705    -0.032     (0)  
   AlF4-           3.749e-15   3.485e-15   -14.426   -14.458    -0.032     (0)  
   Al(SO4)2-       5.639e-16   5.243e-16   -15.249   -15.280    -0.032     (0)  
   AlHSO4+2        6.697e-22   4.993e-22   -21.174   -21.302    -0.128     (0)  
C(-4)         0.000e+00
   CH4             0.000e+00   0.000e+00  -148.526  -148.525     0.000     32.22
C(4)          2.515e-03
   HCO3-           2.317e-03   2.157e-03    -2.635    -2.666    -0.031     24.05
   CO2             1.649e-04   1.651e-04    -3.783    -3.782     0.000     31.17
   CaHCO3+         2.070e-05   1.929e-05    -4.684    -4.715    -0.031      9.37
   MgHCO3+         4.099e-06   3.808e-06    -5.387    -5.419    -0.032      5.25
   CO3-2           3.731e-06   2.802e-06    -5.428    -5.552    -0.124     -5.96
   CaCO3           3.321e-06   3.325e-06    -5.479    -5.478     0.000    -14.63
   NaHCO3          9.525e-07   9.536e-07    -6.021    -6.021     0.000      1.80
   MgCO3           3.679e-07   3.683e-07    -6.434    -6.434     0.000    -17.08
   MnCO3           1.736e-07   1.738e-07    -6.760    -6.760     0.000     (0)  
   MnHCO3+         1.613e-07   1.501e-07    -6.792    -6.824    -0.031     (0)  
   NaCO3-          2.819e-08   2.620e-08    -7.550    -7.582    -0.032     -1.84
   FeHCO3+         1.753e-16   1.629e-16   -15.756   -15.788    -0.032     (0)  
   FeCO3           5.071e-17   5.077e-17   -16.295   -16.294     0.000     (0)  
Ca            1.110e-03
   Ca+2            1.074e-03   8.066e-04    -2.969    -3.093    -0.124    -18.14
   CaHCO3+         2.070e-05   1.929e-05    -4.684    -4.715    -0.031      9.37
   CaSO4           1.177e-05   1.179e-05    -4.929    -4.929     0.000      7.17
   CaCO3           3.321e-06   3.325e-06    -5.479    -5.478     0.000    -14.63
   CaHPO4          1.737e-07   1.739e-07    -6.760    -6.760     0.000     (0)  
   CaPO4-          1.253e-08   1.166e-08    -7.902    -7.933    -0.031     (0)  
   CaOH+           4.745e-09   4.409e-09    -8.324    -8.356    -0.032     (0)  
   CaH2PO4+        4.434e-09   4.128e-09    -8.353    -8.384    -0.031     (0)  
   CaHSO4+         2.279e-12   2.117e-12   -11.642   -11.674    -0.032     (0)  
Cl            7.139e-04
   Cl-             7.139e-04   6.630e-04    -3.146    -3.178    -0.032     17.82
   MnCl+           2.266e-09   2.109e-09    -8.645    -8.676    -0.031     -5.30
   MnCl2           6.096e-13   6.103e-13   -12.215   -12.214     0.000     96.61
   MnCl3-          1.198e-16   1.114e-16   -15.922   -15.953    -0.031     43.67
   FeCl+2          5.527e-17   4.142e-17   -16.257   -16.383    -0.125     (0)  
   FeCl+           7.438e-19   6.911e-19   -18.129   -18.160    -0.032     (0)  
   FeCl2+          1.699e-19   1.581e-19   -18.770   -18.801    -0.031     (0)  
   FeCl3           1.047e-23   1.048e-23   -22.980   -22.980     0.000     (0)  
Doc           7.864e-04
   Doc             7.864e-04   7.872e-04    -3.104    -3.104     0.000     (0)  
F             4.054e-06
   F-              4.017e-06   3.729e-06    -5.396    -5.428    -0.032     -1.41
   MgF+            3.558e-08   3.308e-08    -7.449    -7.480    -0.032    -10.54
   NaF             1.611e-09   1.612e-09    -8.793    -8.793     0.000      6.93
   HF              1.476e-10   1.478e-10    -9.831    -9.830     0.000     12.10
   AlF2+           5.426e-11   5.052e-11   -10.266   -10.297    -0.031     (0)  
   AlF+2           3.751e-11   2.818e-11   -10.426   -10.550    -0.124     (0)  
   MnF+            2.165e-11   2.014e-11   -10.665   -10.696    -0.031     (0)  
   AlF3            2.350e-12   2.352e-12   -11.629   -11.629     0.000     (0)  
   FeF+2           1.860e-14   1.394e-14   -13.730   -13.856    -0.125     (0)  
   AlF4-           3.749e-15   3.485e-15   -14.426   -14.458    -0.032     (0)  
   HF2-            2.126e-15   1.976e-15   -14.672   -14.704    -0.032     21.67
   FeF2+           2.023e-15   1.882e-15   -14.694   -14.725    -0.031     (0)  
   FeF3            1.081e-17   1.082e-17   -16.966   -16.966     0.000     (0)  
   FeF+            3.031e-20   2.816e-20   -19.518   -19.550    -0.032     (0)  
   SiF6-2          1.173e-36   8.791e-37   -35.931   -36.056    -0.125     42.12
Fe(2)         1.245e-15
   Fe+2            1.002e-15   7.552e-16   -14.999   -15.122    -0.123    -22.56
   FeHCO3+         1.753e-16   1.629e-16   -15.756   -15.788    -0.032     (0)  
   FeCO3           5.071e-17   5.077e-17   -16.295   -16.294     0.000     (0)  
   FeSO4           1.011e-17   1.012e-17   -16.995   -16.995     0.000     28.13
   FeOH+           4.650e-18   4.327e-18   -17.333   -17.364    -0.031     (0)  
   FeHPO4          1.371e-18   1.372e-18   -17.863   -17.863     0.000     (0)  
   FeCl+           7.438e-19   6.911e-19   -18.129   -18.160    -0.032     (0)  
   FeH2PO4+        9.484e-20   8.829e-20   -19.023   -19.054    -0.031     (0)  
   FeF+            3.031e-20   2.816e-20   -19.518   -19.550    -0.032     (0)  
   Fe(OH)2         6.042e-22   6.049e-22   -21.219   -21.218     0.000     (0)  
   FeHSO4+         2.133e-24   1.982e-24   -23.671   -23.703    -0.032     (0)  
   Fe(OH)3-        7.354e-25   6.843e-25   -24.133   -24.165    -0.031     (0)  
   Fe(HS)2         0.000e+00   0.000e+00  -300.077  -300.076     0.000     (0)  
   Fe(HS)3-        0.000e+00   0.000e+00  -444.960  -444.992    -0.032     (0)  
Fe(3)         1.179e-05
   Fe(OH)3         8.525e-06   8.534e-06    -5.069    -5.069     0.000     (0)  
   Fe(OH)2+        3.062e-06   2.850e-06    -5.514    -5.545    -0.031     (0)  
   Fe(OH)4-        1.996e-07   1.859e-07    -6.700    -6.731    -0.031     (0)  
   FeOH+2          4.724e-10   3.540e-10    -9.326    -9.451    -0.125     (0)  
   FeF+2           1.860e-14   1.394e-14   -13.730   -13.856    -0.125     (0)  
   Fe+3            4.858e-15   2.666e-15   -14.314   -14.574    -0.261     (0)  
   FeSO4+          2.296e-15   2.136e-15   -14.639   -14.670    -0.031     (0)  
   FeF2+           2.023e-15   1.882e-15   -14.694   -14.725    -0.031     (0)  
   FeHPO4+         2.712e-16   2.523e-16   -15.567   -15.598    -0.031     (0)  
   FeH2PO4+2       2.228e-16   1.674e-16   -15.652   -15.776    -0.124     (0)  
   FeCl+2          5.527e-17   4.142e-17   -16.257   -16.383    -0.125     (0)  
   Fe2(OH)2+4      1.519e-17   4.694e-18   -16.818   -17.328    -0.510     (0)  
   FeF3            1.081e-17   1.082e-17   -16.966   -16.966     0.000     (0)  
   Fe(SO4)2-       4.254e-18   3.953e-18   -17.371   -17.403    -0.032     (0)  
   FeCl2+          1.699e-19   1.581e-19   -18.770   -18.801    -0.031     (0)  
   Fe3(OH)4+5      3.665e-20   5.847e-21   -19.436   -20.233    -0.797     (0)  
   FeHSO4+2        2.358e-22   1.758e-22   -21.627   -21.755    -0.128     (0)  
   FeCl3           1.047e-23   1.048e-23   -22.980   -22.980     0.000     (0)  
H(0)          0.000e+00
   H2              0.000e+00   0.000e+00   -45.668   -45.668     0.000     28.61
K             7.368e-05
   K+              7.365e-05   6.838e-05    -4.133    -4.165    -0.032      8.76
   KSO4-           3.916e-08   3.646e-08    -7.407    -7.438    -0.031     33.90
   KHPO4-          6.537e-11   6.086e-11   -10.185   -10.216    -0.031     38.76
Mg            2.132e-04
   Mg+2            2.061e-04   1.552e-04    -3.686    -3.809    -0.123    -21.42
   MgHCO3+         4.099e-06   3.808e-06    -5.387    -5.419    -0.032      5.25
   MgSO4           2.581e-06   2.583e-06    -5.588    -5.588     0.000      5.51
   MgCO3           3.679e-07   3.683e-07    -6.434    -6.434     0.000    -17.08
   MgHPO4          4.518e-08   4.523e-08    -7.345    -7.345     0.000     (0)  
   MgF+            3.558e-08   3.308e-08    -7.449    -7.480    -0.032    -10.54
   MgOH+           9.667e-09   9.014e-09    -8.015    -8.045    -0.030     (0)  
   MgPO4-          3.251e-09   3.027e-09    -8.488    -8.519    -0.031     (0)  
   MgH2PO4+        1.086e-09   1.011e-09    -8.964    -8.995    -0.031     (0)  
Mn(2)         1.384e-06
   Mn+2            1.036e-06   7.808e-07    -5.985    -6.107    -0.123    -20.46
   MnCO3           1.736e-07   1.738e-07    -6.760    -6.760     0.000     (0)  
   MnHCO3+         1.613e-07   1.501e-07    -6.792    -6.824    -0.031     (0)  
   MnSO4           1.039e-08   1.040e-08    -7.983    -7.983     0.000     26.41
   MnCl+           2.266e-09   2.109e-09    -8.645    -8.676    -0.031     -5.30
   MnOH+           3.701e-10   3.444e-10    -9.432    -9.463    -0.031     (0)  
   MnF+            2.165e-11   2.014e-11   -10.665   -10.696    -0.031     (0)  
   MnCl2           6.096e-13   6.103e-13   -12.215   -12.214     0.000     96.61
   Mn(NO3)2        2.470e-15   2.473e-15   -14.607   -14.607     0.000     43.33
   MnCl3-          1.198e-16   1.114e-16   -15.922   -15.953    -0.031     43.67
   Mn(OH)3-        4.751e-19   4.420e-19   -18.323   -18.355    -0.031     (0)  
Mn(3)         7.834e-19
   Mn+3            7.834e-19   4.299e-19   -18.106   -18.367    -0.261     (0)  
N(-3)         0.000e+00
   NH4+            0.000e+00   0.000e+00   -67.009   -67.042    -0.033     17.71
   NH3             0.000e+00   0.000e+00   -69.015   -69.014     0.000     24.03
   NH4SO4-         0.000e+00   0.000e+00   -69.960   -69.992    -0.032     35.04
N(0)          4.128e-24
   N2              2.064e-24   2.066e-24   -23.685   -23.685     0.000     29.29
N(3)          2.279e-18
   NO2-            2.279e-18   2.114e-18   -17.642   -17.675    -0.033     24.53
N(5)          3.014e-05
   NO3-            3.014e-05   2.795e-05    -4.521    -4.554    -0.033     28.69
   Mn(NO3)2        2.470e-15   2.473e-15   -14.607   -14.607     0.000     43.33
Na            8.093e-04
   Na+             8.080e-04   7.514e-04    -3.093    -3.124    -0.032     -1.88
   NaHCO3          9.525e-07   9.536e-07    -6.021    -6.021     0.000      1.80
   NaSO4-          3.355e-07   3.123e-07    -6.474    -6.505    -0.031     14.23
   NaCO3-          2.819e-08   2.620e-08    -7.550    -7.582    -0.032     -1.84
   NaF             1.611e-09   1.612e-09    -8.793    -8.793     0.000      6.93
   NaHPO4-         7.184e-10   6.688e-10    -9.144    -9.175    -0.031     33.97
   NaOH            1.349e-20   1.350e-20   -19.870   -19.870     0.000     (0)  
Ntg           5.918e-04
   Ntg             5.918e-04   5.925e-04    -3.228    -3.227     0.000     29.29
O(0)          4.721e-04
   O2              2.360e-04   2.363e-04    -3.627    -3.627     0.000     29.73
Oxg           3.063e-04
   Oxg             3.063e-04   3.066e-04    -3.514    -3.513     0.000     29.73
P             1.101e-06
   HPO4-2          6.091e-07   4.565e-07    -6.215    -6.341    -0.125      7.05
   H2PO4-          2.506e-07   2.333e-07    -6.601    -6.632    -0.031     33.41
   CaHPO4          1.737e-07   1.739e-07    -6.760    -6.760     0.000     (0)  
   MgHPO4          4.518e-08   4.523e-08    -7.345    -7.345     0.000     (0)  
   CaPO4-          1.253e-08   1.166e-08    -7.902    -7.933    -0.031     (0)  
   CaH2PO4+        4.434e-09   4.128e-09    -8.353    -8.384    -0.031     (0)  
   MgPO4-          3.251e-09   3.027e-09    -8.488    -8.519    -0.031     (0)  
   MgH2PO4+        1.086e-09   1.011e-09    -8.964    -8.995    -0.031     (0)  
   NaHPO4-         7.184e-10   6.688e-10    -9.144    -9.175    -0.031     33.97
   KHPO4-          6.537e-11   6.086e-11   -10.185   -10.216    -0.031     38.76
   PO4-3           1.121e-11   5.781e-12   -10.950   -11.238    -0.288    -22.29
   H3PO4           9.462e-13   9.473e-13   -12.024   -12.024     0.000     46.93
   FeHPO4+         2.712e-16   2.523e-16   -15.567   -15.598    -0.031     (0)  
   FeH2PO4+2       2.228e-16   1.674e-16   -15.652   -15.776    -0.124     (0)  
   FeHPO4          1.371e-18   1.372e-18   -17.863   -17.863     0.000     (0)  
   FeH2PO4+        9.484e-20   8.829e-20   -19.023   -19.054    -0.031     (0)  
S(-2)         0.000e+00
   HS-             0.000e+00   0.000e+00  -146.920  -146.952    -0.032     20.21
   H2S             0.000e+00   0.000e+00  -147.420  -147.419     0.000     37.13
   S-2             0.000e+00   0.000e+00  -152.465  -152.590    -0.125     (0)  
   Fe(HS)2         0.000e+00   0.000e+00  -300.077  -300.076     0.000     (0)  
   Fe(HS)3-        0.000e+00   0.000e+00  -444.960  -444.992    -0.032     (0)  
S(6)          1.312e-04
   SO4-2           1.165e-04   8.725e-05    -3.934    -4.059    -0.125     13.45
   CaSO4           1.177e-05   1.179e-05    -4.929    -4.929     0.000      7.17
   MgSO4           2.581e-06   2.583e-06    -5.588    -5.588     0.000      5.51
   NaSO4-          3.355e-07   3.123e-07    -6.474    -6.505    -0.031     14.23
   KSO4-           3.916e-08   3.646e-08    -7.407    -7.438    -0.031     33.90
   MnSO4           1.039e-08   1.040e-08    -7.983    -7.983     0.000     26.41
   [N-3]H4SO4-     4.910e-09   4.562e-09    -8.309    -8.341    -0.032     35.04
   HSO4-           2.350e-10   2.183e-10    -9.629    -9.661    -0.032     39.70
   CaHSO4+         2.279e-12   2.117e-12   -11.642   -11.674    -0.032     (0)  
   AlSO4+          2.121e-13   1.972e-13   -12.673   -12.705    -0.032     (0)  
   FeSO4+          2.296e-15   2.136e-15   -14.639   -14.670    -0.031     (0)  
   Al(SO4)2-       5.639e-16   5.243e-16   -15.249   -15.280    -0.032     (0)  
   FeSO4           1.011e-17   1.012e-17   -16.995   -16.995     0.000     28.13
   Fe(SO4)2-       4.254e-18   3.953e-18   -17.371   -17.403    -0.032     (0)  
   AlHSO4+2        6.697e-22   4.993e-22   -21.174   -21.302    -0.128     (0)  
   FeHSO4+2        2.358e-22   1.758e-22   -21.627   -21.755    -0.128     (0)  
   FeHSO4+         2.133e-24   1.982e-24   -23.671   -23.703    -0.032     (0)  
   NH4SO4-         0.000e+00   0.000e+00   -69.960   -69.992    -0.032     35.04
Si            1.221e-04
   H4SiO4          1.216e-04   1.218e-04    -3.915    -3.915     0.000     52.81
   H3SiO4-         4.789e-07   4.449e-07    -6.320    -6.352    -0.032     27.77
   H2SiO4-2        7.806e-13   5.864e-13   -12.108   -12.232    -0.124     (0)  
   SiF6-2          1.173e-36   8.791e-37   -35.931   -36.056    -0.125     42.12
Turb          7.142e-03
   Turb            7.142e-03   7.150e-03    -2.146    -2.146     0.000     (0)  
Uvab          3.268e-02
   Uvab            3.268e-02   3.272e-02    -1.486    -1.485     0.000     (0)  
[N+3]         7.142e-12
   [N+3]O2-        7.142e-12   6.624e-12   -11.146   -11.179    -0.033     24.53
[N-3]         4.428e-06
   [N-3]H4+        4.380e-06   4.059e-06    -5.359    -5.392    -0.033     17.71
   [N-3]H3         4.327e-08   4.331e-08    -7.364    -7.363     0.000     24.03
   [N-3]H4SO4-     4.910e-09   4.562e-09    -8.309    -8.341    -0.032     35.04

--------------------------Distribution of alkalinity---------------------------

	Total alkalinity (eq/kgw)  =   2.381e-03

	Species          Alkalinity    Molality   Alk/Mol

	HCO3-             2.317e-03   2.317e-03      1.00
	CaHCO3+           2.070e-05   2.070e-05      1.00
	Al(OH)4-          1.272e-05   3.179e-06      4.00
	Fe(OH)3           8.525e-06   8.525e-06      1.00
	CO3-2             7.462e-06   3.731e-06      2.00
	CaCO3             6.642e-06   3.321e-06      2.00
	MgHCO3+           4.099e-06   4.099e-06      1.00
	NaHCO3            9.525e-07   9.525e-07      1.00
	MgCO3             7.357e-07   3.679e-07      2.00
	HPO4-2            6.091e-07   6.091e-07      1.00
	H3SiO4-           4.789e-07   4.789e-07      1.00
	Fe(OH)4-          3.993e-07   1.996e-07      2.00
	MnCO3             3.472e-07   1.736e-07      2.00
	OH-               1.936e-07   1.936e-07      1.00
	CaHPO4            1.737e-07   1.737e-07      1.00
	MnHCO3+           1.613e-07   1.613e-07      1.00
	Al(OH)3           1.559e-07   5.195e-08      3.00
	NaCO3-            5.638e-08   2.819e-08      2.00
	MgHPO4            4.518e-08   4.518e-08      1.00
	[N-3]H3           4.327e-08   4.327e-08      1.00
	Al(OH)2+          4.214e-08   2.107e-08      2.00
	H+               -3.243e-08   3.243e-08     -1.00
	CaPO4-            2.505e-08   1.253e-08      2.00
	MgOH+             9.667e-09   9.667e-09      1.00
	MgPO4-            6.502e-09   3.251e-09      2.00
	CaOH+             4.745e-09   4.745e-09      1.00
	NaHPO4-           7.184e-10   7.184e-10      1.00
	FeOH+2           -4.724e-10   4.724e-10     -1.00
	MnOH+             3.701e-10   3.701e-10      1.00
	HSO4-            -2.350e-10   2.350e-10     -1.00
	AlOH+2            2.063e-10   2.063e-10      1.00
	HF               -1.476e-10   1.476e-10     -1.00
	KHPO4-            6.537e-11   6.537e-11      1.00
	PO4-3             2.243e-11   1.121e-11      2.00
	CaHSO4+          -2.279e-12   2.279e-12     -1.00
	H2SiO4-2          1.561e-12   7.806e-13      2.00
	H3PO4            -9.462e-13   9.462e-13     -1.00
	FeF+2            -3.721e-14   1.860e-14     -2.00
	Fe+3             -9.716e-15   4.858e-15     -2.00
	FeSO4+           -4.593e-15   2.296e-15     -2.00
	FeF2+            -4.045e-15   2.023e-15     -2.00
	HF2-             -2.126e-15   2.126e-15     -1.00
	FeH2PO4+2        -4.457e-16   2.228e-16     -2.00
	FeHPO4+          -2.712e-16   2.712e-16     -1.00
	FeHCO3+           1.753e-16   1.753e-16      1.00
	FeCl+2           -1.105e-16   5.527e-17     -2.00
	FeCO3             1.014e-16   5.071e-17      2.00
	Fe2(OH)2+4       -3.039e-17   1.519e-17     -2.00
	FeF3             -2.162e-17   1.081e-17     -2.00
	Fe(SO4)2-        -8.507e-18   4.254e-18     -2.00
	FeOH+             4.650e-18   4.650e-18      1.00
	Mn(OH)3-          1.425e-18   4.751e-19      3.00
	FeHPO4            1.371e-18   1.371e-18      1.00
	FeCl2+           -3.398e-19   1.699e-19     -2.00
	Fe3(OH)4+5       -7.330e-20   3.665e-20     -2.00
	NaOH              1.349e-20   1.349e-20      1.00
	Fe(OH)2           1.208e-21   6.042e-22      2.00
	FeHSO4+2         -7.073e-22   2.358e-22     -3.00
	AlHSO4+2         -6.697e-22   6.697e-22     -1.00
	FeCl3            -2.094e-23   1.047e-23     -2.00
	Fe(OH)3-          2.206e-24   7.354e-25      3.00
	FeHSO4+          -2.133e-24   2.133e-24     -1.00
	SiF6-2           -4.692e-36   1.173e-36     -4.00
	Fe(HS)3-          0.000e+00   0.000e+00      3.00
	S-2               0.000e+00   0.000e+00      2.00
	NH3               0.000e+00   0.000e+00      1.00
	Fe(HS)2           0.000e+00   0.000e+00      2.00
	HS-               0.000e+00   0.000e+00      1.00

------------------------------Saturation indices-------------------------------

  Phase               SI** log IAP   log K(290 K,   1 atm)

  [N-3]H3(g)       -9.33     -7.36    1.96  [N-3]H3
  Al(OH)3(a)       -0.87     10.45   11.32  Al(OH)3
  Albite           -1.88    -20.39  -18.51  NaAlSi3O8
  Alunite          -3.07     -3.48   -0.41  KAl3(SO4)2(OH)6
  Anhydrite        -2.96     -7.15   -4.19  CaSO4
  Anorthite        -2.04    -21.98  -19.94  CaAl2Si2O8
  Aragonite        -0.36     -8.65   -8.29  CaCO3
  Ca-Montmorillonite   3.38    -42.79  -46.17  Ca0.165Al2.33Si3.67O10(OH)2
  Calcite          -0.21     -8.65   -8.44  CaCO3
  CH4(g)         -145.75   -148.53   -2.78  CH4
  Chalcedony       -0.27     -3.91   -3.64  SiO2
  Chlorite(14A)    -6.06     65.30   71.36  Mg5Al2Si3O10(OH)8
  Chrysotile       -7.34     25.85   33.19  Mg3Si2O5(OH)4
  CO2(g)           -2.42     -3.78   -1.37  CO2
  Dolomite         -1.10    -18.01  -16.90  CaMg(CO3)2
  Fe(OH)3(a)        3.09      7.98    4.89  Fe(OH)3
  FeS(ppt)       -150.64   -154.56   -3.92  FeS
  Fluorite         -3.25    -13.95  -10.70  CaF2
  Gibbsite          1.89     10.45    8.56  Al(OH)3
  Goethite          8.69      7.98   -0.72  FeOOH
  Gypsum           -2.57     -7.15   -4.58  CaSO4:2H2O
  H2(g)           -42.59    -45.67   -3.08  H2
  H2O(g)           -1.71     -0.00    1.71  H2O
  H2S(g)         -146.46   -154.47   -8.01  H2S
  Halite           -7.87     -6.30    1.56  NaCl
  Hausmannite       6.33     69.34   63.01  Mn3O4
  Hematite         19.36     15.96   -3.40  Fe2O3
  Hydroxyapatite   -1.71     -4.42   -2.71  Ca5(PO4)3OH
  Illite            2.45    -38.89  -41.34  K0.6Mg0.25Al2.3Si3.5O10(OH)2
  Jarosite-K       -2.31    -10.90   -8.59  KFe3(SO4)2(OH)6
  K-feldspar       -0.26    -21.44  -21.18  KAlSi3O8
  K-mica            9.10     22.97   13.87  KAl3Si3O10(OH)2
  Kaolinite         4.95     13.08    8.13  Al2Si2O5(OH)4
  Mackinawite    -149.91   -154.56   -4.65  FeS
  Manganite         4.86     30.20   25.34  MnOOH
  Melanterite     -16.88    -19.18   -2.31  FeSO4:7H2O
  N2(g)           -20.56    -23.68   -3.12  N2
  NH3(g)          -70.98    -69.01    1.96  NH3
  Ntg(g)           -0.10     -3.23   -3.12  Ntg
  O2(g)            -0.80     -3.63   -2.83  O2
  Oxg(g)           -0.68     -3.51   -2.83  Oxg
  Pyrite         -247.77   -266.47  -18.70  FeS2
  Pyrochroite      -6.27      8.93   15.20  Mn(OH)2
  Pyrolusite        8.82     51.48   42.66  MnO2:H2O
  Quartz            0.18     -3.91   -4.10  SiO2
  Rhodochrosite    -0.56    -11.66  -11.10  MnCO3
  Sepiolite        -5.26     10.71   15.97  Mg2Si3O7.5OH:3H2O
  Sepiolite(d)     -7.95     10.71   18.66  Mg2Si3O7.5OH:3H2O
  Siderite         -9.83    -20.67  -10.84  FeCO3
  SiO2(a)          -1.14     -3.91   -2.78  SiO2
  Sulfur         -109.94   -104.87    5.07  S
  Sylvite          -8.20     -7.34    0.86  KCl
  Talc             -4.29     18.02   22.31  Mg3Si4O10(OH)2
  Vaterite         -0.79     -8.65   -7.85  CaCO3
  Vivianite       -31.84    -67.84  -36.00  Fe3(PO4)2:8H2O

**For a gas, SI = log10(fugacity). Fugacity = pressure * phi / 1 atm.
  For ideal gases, phi = 1.

------------------
End of simulation.
------------------

------------------------------------
Reading input data for simulation 4.
------------------------------------

	TITLE	Calculation CCPP
		Use solution	1
		EQUILIBRIUM_PHASES 2
			Calcite
	END
-----
TITLE
-----

	Calculation CCPP

-----------------------------------------
Beginning of batch-reaction calculations.
-----------------------------------------

Reaction step 1.

Using solution 1.	Solution after simulation 3.
Using pure phase assemblage 2.	

-------------------------------Phase assemblage--------------------------------

                                                      Moles in assemblage
Phase               SI  log IAP  log K(T, P)   Initial       Final       Delta

Calcite           0.00    -8.44     -8.44    1.000e+01   1.000e+01  -5.468e-05

-----------------------------Solution composition------------------------------

	Elements           Molality       Moles

	Al                3.252e-06   3.252e-06
	C                 2.570e-03   2.570e-03
	Ca                1.165e-03   1.165e-03
	Cl                7.139e-04   7.139e-04
	Doc               7.864e-04   7.864e-04
	F                 4.054e-06   4.054e-06
	Fe                1.179e-05   1.179e-05
	K                 7.368e-05   7.368e-05
	Mg                2.132e-04   2.132e-04
	Mn                1.384e-06   1.384e-06
	N                 3.014e-05   3.014e-05
	Na                8.093e-04   8.093e-04
	Ntg               5.918e-04   5.918e-04
	Oxg               3.063e-04   3.063e-04
	P                 1.101e-06   1.101e-06
	S                 1.312e-04   1.312e-04
	Si                1.221e-04   1.221e-04
	Turb              7.142e-03   7.142e-03
	Uvab              3.268e-02   3.268e-02
	[N+3]             7.142e-12   7.142e-12
	[N-3]             4.428e-06   4.428e-06

----------------------------Description of solution----------------------------

                                       pH  =   7.688      Charge balance
                                       pe  =  13.588      Adjusted to redox equilibrium
      Specific Conductance (µS/cm,  17°C)  = 296
                          Density (g/cm³)  =   0.99901
                               Volume (L)  =   1.00135
                        Activity of water  =   0.999
                 Ionic strength (mol/kgw)  =   4.949e-03
                       Mass of water (kg)  =   1.000e+00
                 Total alkalinity (eq/kg)  =   2.491e-03
                       Total CO2 (mol/kg)  =   2.570e-03
                         Temperature (°C)  =  17.21
                  Electrical balance (eq)  =   1.659e-04
 Percent error, 100*(Cat-|An|)/(Cat+|An|)  =   2.37
                               Iterations  =   4
                                  Total H  = 1.110215e+02
                                  Total O  = 5.551847e+01

----------------------------Distribution of species----------------------------

                                               Log       Log       Log    mole V
   Species          Molality    Activity  Molality  Activity     Gamma   cm³/mol

   OH-             2.867e-07   2.659e-07    -6.543    -6.575    -0.033     -4.45
   H+              2.193e-08   2.050e-08    -7.659    -7.688    -0.029      0.00
   H2O             5.551e+01   9.992e-01     1.744    -0.000     0.000     18.04
Al            3.252e-06
   Al(OH)4-        3.207e-06   2.979e-06    -5.494    -5.526    -0.032     (0)  
   Al(OH)3         3.538e-08   3.542e-08    -7.451    -7.451     0.000     (0)  
   Al(OH)2+        9.706e-09   9.027e-09    -8.013    -8.044    -0.032     (0)  
   AlOH+2          6.441e-11   4.819e-11   -10.191   -10.317    -0.126    -27.36
   AlF2+           1.139e-11   1.059e-11   -10.943   -10.975    -0.032     (0)  
   AlF+2           7.908e-12   5.916e-12   -11.102   -11.228    -0.126     (0)  
   AlF3            4.923e-13   4.928e-13   -12.308   -12.307     0.000     (0)  
   Al+3            3.061e-13   1.666e-13   -12.514   -12.778    -0.264    -41.51
   AlSO4+          4.430e-14   4.114e-14   -13.354   -13.386    -0.032     (0)  
   AlF4-           7.855e-16   7.296e-16   -15.105   -15.137    -0.032     (0)  
   Al(SO4)2-       1.169e-16   1.086e-16   -15.932   -15.964    -0.032     (0)  
   AlHSO4+2        9.481e-23   7.039e-23   -22.023   -22.153    -0.129     (0)  
C(-4)         0.000e+00
   CH4             0.000e+00   0.000e+00  -148.678  -148.678     0.000     32.22
C(4)          2.570e-03
   HCO3-           2.414e-03   2.245e-03    -2.617    -2.649    -0.032     24.05
   CO2             1.160e-04   1.161e-04    -3.936    -3.935     0.000     31.17
   CaHCO3+         2.249e-05   2.093e-05    -4.648    -4.679    -0.031      9.37
   CO3-2           5.770e-06   4.317e-06    -5.239    -5.365    -0.126     -5.95
   CaCO3           5.334e-06   5.341e-06    -5.273    -5.272     0.000    -14.63
   MgHCO3+         4.248e-06   3.942e-06    -5.372    -5.404    -0.032      5.25
   NaHCO3          9.904e-07   9.915e-07    -6.004    -6.004     0.000      1.80
   MgCO3           5.635e-07   5.642e-07    -6.249    -6.249     0.000    -17.08
   MnCO3           2.486e-07   2.489e-07    -6.604    -6.604     0.000     (0)  
   MnHCO3+         1.563e-07   1.452e-07    -6.806    -6.838    -0.032     (0)  
   NaCO3-          4.342e-08   4.031e-08    -7.362    -7.395    -0.032     -1.84
   FeHCO3+         9.026e-17   8.379e-17   -16.044   -16.077    -0.032     (0)  
   FeCO3           3.860e-17   3.865e-17   -16.413   -16.413     0.000     (0)  
Ca            1.165e-03
   Ca+2            1.125e-03   8.411e-04    -2.949    -3.075    -0.126    -18.14
   CaHCO3+         2.249e-05   2.093e-05    -4.648    -4.679    -0.031      9.37
   CaSO4           1.219e-05   1.220e-05    -4.914    -4.914     0.000      7.17
   CaCO3           5.334e-06   5.341e-06    -5.273    -5.272     0.000    -14.63
   CaHPO4          1.924e-07   1.926e-07    -6.716    -6.715     0.000     (0)  
   CaPO4-          2.056e-08   1.912e-08    -7.687    -7.719    -0.032     (0)  
   CaOH+           7.329e-09   6.803e-09    -8.135    -8.167    -0.032     (0)  
   CaH2PO4+        3.323e-09   3.090e-09    -8.479    -8.510    -0.032     (0)  
   CaHSO4+         1.596e-12   1.481e-12   -11.797   -11.829    -0.032     (0)  
Cl            7.139e-04
   Cl-             7.139e-04   6.623e-04    -3.146    -3.179    -0.033     17.82
   MnCl+           2.107e-09   1.958e-09    -8.676    -8.708    -0.032     -5.29
   MnCl2           5.655e-13   5.661e-13   -12.248   -12.247     0.000     96.61
   MnCl3-          1.111e-16   1.033e-16   -15.954   -15.986    -0.032     43.67
   FeCl+2          1.851e-17   1.382e-17   -16.733   -16.860    -0.127     (0)  
   FeCl+           3.675e-19   3.412e-19   -18.435   -18.467    -0.032     (0)  
   FeCl2+          5.667e-20   5.267e-20   -19.247   -19.278    -0.032     (0)  
   FeCl3           3.484e-24   3.488e-24   -23.458   -23.457     0.000     (0)  
Doc           7.864e-04
   Doc             7.864e-04   7.873e-04    -3.104    -3.104     0.000     (0)  
F             4.054e-06
   F-              4.017e-06   3.725e-06    -5.396    -5.429    -0.033     -1.41
   MgF+            3.539e-08   3.287e-08    -7.451    -7.483    -0.032    -10.54
   NaF             1.607e-09   1.609e-09    -8.794    -8.793     0.000      6.93
   HF              9.967e-11   9.978e-11   -10.001   -10.001     0.000     12.10
   MnF+            2.012e-11   1.871e-11   -10.696   -10.728    -0.032     (0)  
   AlF2+           1.139e-11   1.059e-11   -10.943   -10.975    -0.032     (0)  
   AlF+2           7.908e-12   5.916e-12   -11.102   -11.228    -0.126     (0)  
   AlF3            4.923e-13   4.928e-13   -12.308   -12.307     0.000     (0)  
   FeF+2           6.232e-15   4.651e-15   -14.205   -14.332    -0.127     (0)  
   HF2-            1.435e-15   1.332e-15   -14.843   -14.875    -0.032     21.67
   AlF4-           7.855e-16   7.296e-16   -15.105   -15.137    -0.032     (0)  
   FeF2+           6.748e-16   6.272e-16   -15.171   -15.203    -0.032     (0)  
   FeF3            3.600e-18   3.604e-18   -17.444   -17.443     0.000     (0)  
   FeF+            1.498e-20   1.390e-20   -19.825   -19.857    -0.032     (0)  
   SiF6-2          2.437e-37   1.819e-37   -36.613   -36.740    -0.127     42.12
Fe(2)         6.354e-16
   Fe+2            4.971e-16   3.732e-16   -15.304   -15.428    -0.124    -22.56
   FeHCO3+         9.026e-17   8.379e-17   -16.044   -16.077    -0.032     (0)  
   FeCO3           3.860e-17   3.865e-17   -16.413   -16.413     0.000     (0)  
   FeSO4           4.960e-18   4.966e-18   -17.305   -17.304     0.000     28.13
   FeOH+           3.404e-18   3.164e-18   -17.468   -17.500    -0.032     (0)  
   FeHPO4          7.197e-19   7.205e-19   -18.143   -18.142     0.000     (0)  
   FeCl+           3.675e-19   3.412e-19   -18.435   -18.467    -0.032     (0)  
   FeH2PO4+        3.368e-20   3.133e-20   -19.473   -19.504    -0.032     (0)  
   FeF+            1.498e-20   1.390e-20   -19.825   -19.857    -0.032     (0)  
   Fe(OH)2         6.539e-22   6.546e-22   -21.185   -21.184     0.000     (0)  
   Fe(OH)3-        1.179e-24   1.096e-24   -23.929   -23.960    -0.032     (0)  
   FeHSO4+         7.080e-25   6.572e-25   -24.150   -24.182    -0.032     (0)  
   Fe(HS)2         0.000e+00   0.000e+00  -300.730  -300.729     0.000     (0)  
   Fe(HS)3-        0.000e+00   0.000e+00  -445.786  -445.818    -0.032     (0)  
Fe(3)         1.179e-05
   Fe(OH)3         9.225e-06   9.235e-06    -5.035    -5.035     0.000     (0)  
   Fe(OH)2+        2.241e-06   2.084e-06    -5.650    -5.681    -0.032     (0)  
   Fe(OH)4-        3.200e-07   2.977e-07    -6.495    -6.526    -0.032     (0)  
   FeOH+2          2.344e-10   1.749e-10    -9.630    -9.757    -0.127     (0)  
   FeF+2           6.232e-15   4.651e-15   -14.205   -14.332    -0.127     (0)  
   Fe+3            1.635e-15   8.902e-16   -14.786   -15.050    -0.264     (0)  
   FeSO4+          7.620e-16   7.083e-16   -15.118   -15.150    -0.032     (0)  
   FeF2+           6.748e-16   6.272e-16   -15.171   -15.203    -0.032     (0)  
   FeHPO4+         9.633e-17   8.953e-17   -16.016   -16.048    -0.032     (0)  
   FeH2PO4+2       5.364e-17   4.013e-17   -16.270   -16.397    -0.126     (0)  
   FeCl+2          1.851e-17   1.382e-17   -16.733   -16.860    -0.127     (0)  
   Fe2(OH)2+4      3.774e-18   1.146e-18   -17.423   -17.941    -0.518     (0)  
   FeF3            3.600e-18   3.604e-18   -17.444   -17.443     0.000     (0)  
   Fe(SO4)2-       1.401e-18   1.301e-18   -17.853   -17.886    -0.032     (0)  
   FeCl2+          5.667e-20   5.267e-20   -19.247   -19.278    -0.032     (0)  
   Fe3(OH)4+5      6.720e-21   1.044e-21   -20.173   -20.981    -0.809     (0)  
   FeHSO4+2        5.304e-23   3.938e-23   -22.275   -22.405    -0.129     (0)  
   FeCl3           3.484e-24   3.488e-24   -23.458   -23.457     0.000     (0)  
H(0)          0.000e+00
   H2              0.000e+00   0.000e+00   -45.668   -45.668     0.000     28.61
K             7.368e-05
   K+              7.365e-05   6.830e-05    -4.133    -4.166    -0.033      8.76
   KSO4-           3.887e-08   3.615e-08    -7.410    -7.442    -0.032     33.90
   KHPO4-          6.945e-11   6.459e-11   -10.158   -10.190    -0.032     38.76
Mg            2.132e-04
   Mg+2            2.057e-04   1.544e-04    -3.687    -3.811    -0.125    -21.41
   MgHCO3+         4.248e-06   3.942e-06    -5.372    -5.404    -0.032      5.25
   MgSO4           2.548e-06   2.551e-06    -5.594    -5.593     0.000      5.51
   MgCO3           5.635e-07   5.642e-07    -6.249    -6.249     0.000    -17.08
   MgHPO4          4.774e-08   4.779e-08    -7.321    -7.321     0.000     (0)  
   MgF+            3.539e-08   3.287e-08    -7.451    -7.483    -0.032    -10.54
   MgOH+           1.424e-08   1.327e-08    -7.846    -7.877    -0.031     (0)  
   MgPO4-          5.089e-09   4.733e-09    -8.293    -8.325    -0.032     (0)  
   MgH2PO4+        7.766e-10   7.222e-10    -9.110    -9.141    -0.032     (0)  
Mn(2)         1.384e-06
   Mn+2            9.667e-07   7.258e-07    -6.015    -6.139    -0.124    -20.44
   MnCO3           2.486e-07   2.489e-07    -6.604    -6.604     0.000     (0)  
   MnHCO3+         1.563e-07   1.452e-07    -6.806    -6.838    -0.032     (0)  
   MnSO4           9.586e-09   9.597e-09    -8.018    -8.018     0.000     26.41
   MnCl+           2.107e-09   1.958e-09    -8.676    -8.708    -0.032     -5.29
   MnOH+           5.097e-10   4.737e-10    -9.293    -9.324    -0.032     (0)  
   MnF+            2.012e-11   1.871e-11   -10.696   -10.728    -0.032     (0)  
   MnCl2           5.655e-13   5.661e-13   -12.248   -12.247     0.000     96.61
   Mn(NO3)2        2.291e-15   2.294e-15   -14.640   -14.639     0.000     43.33
   MnCl3-          1.111e-16   1.033e-16   -15.954   -15.986    -0.032     43.67
   Mn(OH)3-        1.433e-18   1.332e-18   -17.844   -17.876    -0.032     (0)  
Mn(3)         4.960e-19
   Mn+3            4.960e-19   2.700e-19   -18.305   -18.569    -0.264     (0)  
N(-3)         0.000e+00
   NH4+            0.000e+00   0.000e+00   -67.350   -67.383    -0.033     17.71
   NH3             0.000e+00   0.000e+00   -69.185   -69.185     0.000     24.03
   NH4SO4-         0.000e+00   0.000e+00   -70.303   -70.336    -0.032     35.04
N(0)          1.880e-24
   N2              9.402e-25   9.413e-25   -24.027   -24.026     0.000     29.29
N(3)          2.279e-18
   NO2-            2.279e-18   2.111e-18   -17.642   -17.675    -0.033     24.53
N(5)          3.014e-05
   NO3-            3.014e-05   2.792e-05    -4.521    -4.554    -0.033     28.69
   Mn(NO3)2        2.291e-15   2.294e-15   -14.640   -14.639     0.000     43.33
Na            8.093e-04
   Na+             8.079e-04   7.506e-04    -3.093    -3.125    -0.032     -1.88
   NaHCO3          9.904e-07   9.915e-07    -6.004    -6.004     0.000      1.80
   NaSO4-          3.330e-07   3.097e-07    -6.478    -6.509    -0.032     14.24
   NaCO3-          4.342e-08   4.031e-08    -7.362    -7.395    -0.032     -1.84
   NaF             1.607e-09   1.609e-09    -8.794    -8.793     0.000      6.93
   NaHPO4-         7.632e-10   7.098e-10    -9.117    -9.149    -0.032     33.98
   NaOH            1.994e-20   1.996e-20   -19.700   -19.700     0.000     (0)  
Ntg           5.918e-04
   Ntg             5.918e-04   5.925e-04    -3.228    -3.227     0.000     29.29
O(0)          4.721e-04
   O2              2.360e-04   2.363e-04    -3.627    -3.627     0.000     29.73
Oxg           3.063e-04
   Oxg             3.063e-04   3.066e-04    -3.514    -3.513     0.000     29.73
P             1.101e-06
   HPO4-2          6.498e-07   4.850e-07    -6.187    -6.314    -0.127      7.05
   CaHPO4          1.924e-07   1.926e-07    -6.716    -6.715     0.000     (0)  
   H2PO4-          1.801e-07   1.675e-07    -6.745    -6.776    -0.032     33.42
   MgHPO4          4.774e-08   4.779e-08    -7.321    -7.321     0.000     (0)  
   CaPO4-          2.056e-08   1.912e-08    -7.687    -7.719    -0.032     (0)  
   MgPO4-          5.089e-09   4.733e-09    -8.293    -8.325    -0.032     (0)  
   CaH2PO4+        3.323e-09   3.090e-09    -8.479    -8.510    -0.032     (0)  
   MgH2PO4+        7.766e-10   7.222e-10    -9.110    -9.141    -0.032     (0)  
   NaHPO4-         7.632e-10   7.098e-10    -9.117    -9.149    -0.032     33.98
   KHPO4-          6.945e-11   6.459e-11   -10.158   -10.190    -0.032     38.76
   PO4-3           1.780e-11   9.089e-12   -10.750   -11.041    -0.292    -22.28
   H3PO4           4.591e-13   4.596e-13   -12.338   -12.338     0.000     46.93
   FeHPO4+         9.633e-17   8.953e-17   -16.016   -16.048    -0.032     (0)  
   FeH2PO4+2       5.364e-17   4.013e-17   -16.270   -16.397    -0.126     (0)  
   FeHPO4          7.197e-19   7.205e-19   -18.143   -18.142     0.000     (0)  
   FeH2PO4+        3.368e-20   3.133e-20   -19.473   -19.504    -0.032     (0)  
S(-2)         0.000e+00
   HS-             0.000e+00   0.000e+00  -147.093  -147.126    -0.033     20.21
   H2S             0.000e+00   0.000e+00  -147.764  -147.763     0.000     37.13
   S-2             0.000e+00   0.000e+00  -152.466  -152.593    -0.127     (0)  
   Fe(HS)2         0.000e+00   0.000e+00  -300.730  -300.729     0.000     (0)  
   Fe(HS)3-        0.000e+00   0.000e+00  -445.786  -445.818    -0.032     (0)  
S(6)          1.312e-04
   SO4-2           1.161e-04   8.661e-05    -3.935    -4.062    -0.127     13.45
   CaSO4           1.219e-05   1.220e-05    -4.914    -4.914     0.000      7.17
   MgSO4           2.548e-06   2.551e-06    -5.594    -5.593     0.000      5.51
   NaSO4-          3.330e-07   3.097e-07    -6.478    -6.509    -0.032     14.24
   KSO4-           3.887e-08   3.615e-08    -7.410    -7.442    -0.032     33.90
   MnSO4           9.586e-09   9.597e-09    -8.018    -8.018     0.000     26.41
   [N-3]H4SO4-     4.851e-09   4.503e-09    -8.314    -8.347    -0.032     35.04
   HSO4-           1.578e-10   1.465e-10    -9.802    -9.834    -0.032     39.70
   CaHSO4+         1.596e-12   1.481e-12   -11.797   -11.829    -0.032     (0)  
   AlSO4+          4.430e-14   4.114e-14   -13.354   -13.386    -0.032     (0)  
   FeSO4+          7.620e-16   7.083e-16   -15.118   -15.150    -0.032     (0)  
   Al(SO4)2-       1.169e-16   1.086e-16   -15.932   -15.964    -0.032     (0)  
   FeSO4           4.960e-18   4.966e-18   -17.305   -17.304     0.000     28.13
   Fe(SO4)2-       1.401e-18   1.301e-18   -17.853   -17.886    -0.032     (0)  
   AlHSO4+2        9.481e-23   7.039e-23   -22.023   -22.153    -0.129     (0)  
   FeHSO4+2        5.304e-23   3.938e-23   -22.275   -22.405    -0.129     (0)  
   FeHSO4+         7.080e-25   6.572e-25   -24.150   -24.182    -0.032     (0)  
   NH4SO4-         0.000e+00   0.000e+00   -70.303   -70.336    -0.032     35.04
Si            1.221e-04
   H4SiO4          1.214e-04   1.215e-04    -3.916    -3.915     0.000     52.81
   H3SiO4-         7.081e-07   6.572e-07    -6.150    -6.182    -0.032     27.77
   H2SiO4-2        1.713e-12   1.282e-12   -11.766   -11.892    -0.126     (0)  
   SiF6-2          2.437e-37   1.819e-37   -36.613   -36.740    -0.127     42.12
Turb          7.142e-03
   Turb            7.142e-03   7.150e-03    -2.146    -2.146     0.000     (0)  
Uvab          3.268e-02
   Uvab            3.268e-02   3.272e-02    -1.486    -1.485     0.000     (0)  
[N+3]         7.142e-12
   [N+3]O2-        7.142e-12   6.617e-12   -11.146   -11.179    -0.033     24.53
[N-3]         4.428e-06
   [N-3]H4+        4.359e-06   4.036e-06    -5.361    -5.394    -0.033     17.71
   [N-3]H3         6.365e-08   6.373e-08    -7.196    -7.196     0.000     24.03
   [N-3]H4SO4-     4.851e-09   4.503e-09    -8.314    -8.347    -0.032     35.04

--------------------------Distribution of alkalinity---------------------------

	Total alkalinity (eq/kgw)  =   2.491e-03

	Species          Alkalinity    Molality   Alk/Mol

	HCO3-             2.414e-03   2.414e-03      1.00
	CaHCO3+           2.249e-05   2.249e-05      1.00
	Al(OH)4-          1.283e-05   3.207e-06      4.00
	CO3-2             1.154e-05   5.770e-06      2.00
	CaCO3             1.067e-05   5.334e-06      2.00
	Fe(OH)3           9.225e-06   9.225e-06      1.00
	MgHCO3+           4.248e-06   4.248e-06      1.00
	MgCO3             1.127e-06   5.635e-07      2.00
	NaHCO3            9.904e-07   9.904e-07      1.00
	H3SiO4-           7.081e-07   7.081e-07      1.00
	HPO4-2            6.498e-07   6.498e-07      1.00
	Fe(OH)4-          6.401e-07   3.200e-07      2.00
	MnCO3             4.972e-07   2.486e-07      2.00
	OH-               2.867e-07   2.867e-07      1.00
	CaHPO4            1.924e-07   1.924e-07      1.00
	MnHCO3+           1.563e-07   1.563e-07      1.00
	Al(OH)3           1.061e-07   3.538e-08      3.00
	NaCO3-            8.685e-08   4.342e-08      2.00
	[N-3]H3           6.365e-08   6.365e-08      1.00
	MgHPO4            4.774e-08   4.774e-08      1.00
	CaPO4-            4.111e-08   2.056e-08      2.00
	H+               -2.193e-08   2.193e-08     -1.00
	Al(OH)2+          1.941e-08   9.706e-09      2.00
	MgOH+             1.424e-08   1.424e-08      1.00
	MgPO4-            1.018e-08   5.089e-09      2.00
	CaOH+             7.329e-09   7.329e-09      1.00
	NaHPO4-           7.632e-10   7.632e-10      1.00
	MnOH+             5.097e-10   5.097e-10      1.00
	FeOH+2           -2.344e-10   2.344e-10     -1.00
	HSO4-            -1.578e-10   1.578e-10     -1.00
	HF               -9.967e-11   9.967e-11     -1.00
	KHPO4-            6.945e-11   6.945e-11      1.00
	AlOH+2            6.441e-11   6.441e-11      1.00
	PO4-3             3.560e-11   1.780e-11      2.00
	H2SiO4-2          3.426e-12   1.713e-12      2.00
	CaHSO4+          -1.596e-12   1.596e-12     -1.00
	H3PO4            -4.591e-13   4.591e-13     -1.00
	FeF+2            -1.246e-14   6.232e-15     -2.00
	Fe+3             -3.270e-15   1.635e-15     -2.00
	FeSO4+           -1.524e-15   7.620e-16     -2.00
	HF2-             -1.435e-15   1.435e-15     -1.00
	FeF2+            -1.350e-15   6.748e-16     -2.00
	FeH2PO4+2        -1.073e-16   5.364e-17     -2.00
	FeHPO4+          -9.633e-17   9.633e-17     -1.00
	FeHCO3+           9.026e-17   9.026e-17      1.00
	FeCO3             7.721e-17   3.860e-17      2.00
	FeCl+2           -3.703e-17   1.851e-17     -2.00
	Fe2(OH)2+4       -7.548e-18   3.774e-18     -2.00
	FeF3             -7.199e-18   3.600e-18     -2.00
	Mn(OH)3-          4.298e-18   1.433e-18      3.00
	FeOH+             3.404e-18   3.404e-18      1.00
	Fe(SO4)2-        -2.803e-18   1.401e-18     -2.00
	FeHPO4            7.197e-19   7.197e-19      1.00
	FeCl2+           -1.133e-19   5.667e-20     -2.00
	NaOH              1.994e-20   1.994e-20      1.00
	Fe3(OH)4+5       -1.344e-20   6.720e-21     -2.00
	Fe(OH)2           1.308e-21   6.539e-22      2.00
	FeHSO4+2         -1.591e-22   5.304e-23     -3.00
	AlHSO4+2         -9.481e-23   9.481e-23     -1.00
	FeCl3            -6.969e-24   3.484e-24     -2.00
	Fe(OH)3-          3.537e-24   1.179e-24      3.00
	FeHSO4+          -7.080e-25   7.080e-25     -1.00
	SiF6-2           -9.748e-37   2.437e-37     -4.00
	HS-               0.000e+00   0.000e+00      1.00
	S-2               0.000e+00   0.000e+00      2.00
	Fe(HS)2           0.000e+00   0.000e+00      2.00
	NH3               0.000e+00   0.000e+00      1.00
	Fe(HS)3-          0.000e+00   0.000e+00      3.00

------------------------------Saturation indices-------------------------------

  Phase               SI** log IAP   log K(290 K,   1 atm)

  [N-3]H3(g)       -9.16     -7.20    1.96  [N-3]H3
  Al(OH)3(a)       -1.04     10.29   11.32  Al(OH)3
  Albite           -1.88    -20.39  -18.51  NaAlSi3O8
  Alunite          -4.09     -4.50   -0.41  KAl3(SO4)2(OH)6
  Anhydrite        -2.94     -7.14   -4.19  CaSO4
  Anorthite        -2.01    -21.95  -19.94  CaAl2Si2O8
  Aragonite        -0.15     -8.44   -8.29  CaCO3
  Ca-Montmorillonite   3.05    -43.12  -46.17  Ca0.165Al2.33Si3.67O10(OH)2
  Calcite           0.00     -8.44   -8.44  CaCO3
  CH4(g)         -145.90   -148.68   -2.78  CH4
  Chalcedony       -0.27     -3.91   -3.64  SiO2
  Chlorite(14A)    -4.71     66.65   71.36  Mg5Al2Si3O10(OH)8
  Chrysotile       -6.33     26.86   33.19  Mg3Si2O5(OH)4
  CO2(g)           -2.57     -3.94   -1.37  CO2
  Dolomite         -0.71    -17.62  -16.90  CaMg(CO3)2
  Fe(OH)3(a)        3.12      8.01    4.89  Fe(OH)3
  FeS(ppt)       -150.95   -154.87   -3.92  FeS
  Fluorite         -3.24    -13.93  -10.70  CaF2
  Gibbsite          1.73     10.29    8.56  Al(OH)3
  Goethite          8.73      8.01   -0.72  FeOOH
  Gypsum           -2.56     -7.14   -4.58  CaSO4:2H2O
  H2(g)           -42.59    -45.67   -3.08  H2
  H2O(g)           -1.71     -0.00    1.71  H2O
  H2S(g)         -146.80   -154.81   -8.01  H2S
  Halite           -7.87     -6.30    1.56  NaCl
  Hausmannite       7.25     70.26   63.01  Mn3O4
  Hematite         19.43     16.03   -3.40  Fe2O3
  Hydroxyapatite   -0.86     -3.57   -2.71  Ca5(PO4)3OH
  Illite            2.25    -39.09  -41.34  K0.6Mg0.25Al2.3Si3.5O10(OH)2
  Jarosite-K       -2.72    -11.31   -8.59  KFe3(SO4)2(OH)6
  K-feldspar       -0.26    -21.43  -21.18  KAlSi3O8
  K-mica            8.77     22.64   13.87  KAl3Si3O10(OH)2
  Kaolinite         4.61     12.74    8.13  Al2Si2O5(OH)4
  Mackinawite    -150.22   -154.87   -4.65  FeS
  Manganite         5.17     30.51   25.34  MnOOH
  Melanterite     -17.18    -19.49   -2.31  FeSO4:7H2O
  N2(g)           -20.90    -24.03   -3.12  N2
  NH3(g)          -71.15    -69.18    1.96  NH3
  Ntg(g)           -0.10     -3.23   -3.12  Ntg
  O2(g)            -0.80     -3.63   -2.83  O2
  Oxg(g)           -0.68     -3.51   -2.83  Oxg
  Pyrite         -248.43   -267.13  -18.70  FeS2
  Pyrochroite      -5.96      9.24   15.20  Mn(OH)2
  Pyrolusite        9.13     51.79   42.66  MnO2:H2O
  Quartz            0.18     -3.91   -4.10  SiO2
  Rhodochrosite    -0.40    -11.50  -11.10  MnCO3
  Sepiolite        -4.59     11.38   15.97  Mg2Si3O7.5OH:3H2O
  Sepiolite(d)     -7.28     11.38   18.66  Mg2Si3O7.5OH:3H2O
  Siderite         -9.95    -20.79  -10.84  FeCO3
  SiO2(a)          -1.14     -3.91   -2.78  SiO2
  Sulfur         -110.28   -105.21    5.07  S
  Sylvite          -8.20     -7.34    0.86  KCl
  Talc             -3.28     19.03   22.31  Mg3Si4O10(OH)2
  Vaterite         -0.59     -8.44   -7.85  CaCO3
  Vivianite       -32.37    -68.37  -36.00  Fe3(PO4)2:8H2O

**For a gas, SI = log10(fugacity). Fugacity = pressure * phi / 1 atm.
  For ideal gases, phi = 1.

------------------
End of simulation.
------------------

------------------------------------
Reading input data for simulation 5.
------------------------------------

	TITLE	Dosing HCl
		Use solution	1
		REACTION 1
		HCl	1.0
		0.2631360 mmoles
		Save solution	2
	END
-----
TITLE
-----

	Dosing HCl

-----------------------------------------
Beginning of batch-reaction calculations.
-----------------------------------------

Reaction step 1.

Using solution 1.	Solution after simulation 3.
Using reaction 1.	

Reaction 1.	

	  2.631e-04 moles of the following reaction have been added:

	                 Relative
	Reactant            moles

	HCl                  1.00000

	                 Relative
	Element             moles
	Cl                   1.00000
	H                    1.00000

-----------------------------Solution composition------------------------------

	Elements           Molality       Moles

	Al                3.252e-06   3.252e-06
	C                 2.515e-03   2.515e-03
	Ca                1.110e-03   1.110e-03
	Cl                9.770e-04   9.770e-04
	Doc               7.864e-04   7.864e-04
	F                 4.054e-06   4.054e-06
	Fe                1.179e-05   1.179e-05
	K                 7.368e-05   7.368e-05
	Mg                2.132e-04   2.132e-04
	Mn                1.384e-06   1.384e-06
	N                 3.014e-05   3.014e-05
	Na                8.093e-04   8.093e-04
	Ntg               5.918e-04   5.918e-04
	Oxg               3.063e-04   3.063e-04
	P                 1.101e-06   1.101e-06
	S                 1.312e-04   1.312e-04
	Si                1.221e-04   1.221e-04
	Turb              7.142e-03   7.142e-03
	Uvab              3.268e-02   3.268e-02
	[N+3]             7.142e-12   7.142e-12
	[N-3]             4.428e-06   4.428e-06

----------------------------Description of solution----------------------------

                                       pH  =   7.065      Charge balance
                                       pe  =  14.211      Adjusted to redox equilibrium
      Specific Conductance (µS/cm,  17°C)  = 296
                          Density (g/cm³)  =   0.99900
                               Volume (L)  =   1.00137
                        Activity of water  =   0.999
                 Ionic strength (mol/kgw)  =   4.810e-03
                       Mass of water (kg)  =   1.000e+00
                 Total alkalinity (eq/kg)  =   2.118e-03
                       Total CO2 (mol/kg)  =   2.515e-03
                         Temperature (°C)  =  17.21
                  Electrical balance (eq)  =   1.659e-04
 Percent error, 100*(Cat-|An|)/(Cat+|An|)  =   2.44
                               Iterations  =   5
                                  Total H  = 1.110218e+02
                                  Total O  = 5.551830e+01

----------------------------Distribution of species----------------------------

                                               Log       Log       Log    mole V
   Species          Molality    Activity  Molality  Activity     Gamma   cm³/mol

[...]
   HF              1.348e-10   1.350e-10    -9.870    -9.870     0.001     12.10
   AlF2+           1.080e-11   1.004e-11   -10.967   -10.998    -0.032     (0)  
   AlF+2           7.524e-12   5.610e-12   -11.124   -11.251    -0.128     (0)  
   AlF3            4.658e-13   4.663e-13   -12.332   -12.331     0.001     (0)  
   MnF+            1.751e-13   1.626e-13   -12.757   -12.789    -0.032     (0)  
   HF2-            1.941e-15   1.800e-15   -14.712   -14.745    -0.033     21.67
   AlF4-           7.431e-16   6.896e-16   -15.129   -15.161    -0.032     (0)  
   FeF+2           5.002e-17   3.720e-17   -16.301   -16.429    -0.129     (0)  
   FeF2+           5.396e-18   5.011e-18   -17.268   -17.300    -0.032     (0)  
   FeF3            2.873e-20   2.876e-20   -19.542   -19.541     0.001     (0)  
   FeF+            8.344e-23   7.738e-23   -22.079   -22.111    -0.033     (0)  
   SiF6-2          8.166e-37   6.074e-37   -36.088   -36.217    -0.129     42.13
Fe(2)         3.333e-18
   Fe+2            2.779e-18   2.079e-18   -17.556   -17.682    -0.126    -22.56
   FeHCO3+         3.786e-19   3.511e-19   -18.422   -18.455    -0.033     (0)  
   FeCO3           1.195e-19   1.196e-19   -18.923   -18.922     0.001     (0)  
   FeSO4           3.698e-20   3.702e-20   -19.432   -19.432     0.001     28.13
   FeOH+           1.403e-20   1.303e-20   -19.853   -19.885    -0.032     (0)  
   FeCl+           3.967e-21   3.679e-21   -20.401   -20.434    -0.033     (0)  
   FeHPO4          7.681e-22   7.690e-22   -21.115   -21.114     0.001     (0)  
   FeF+            8.344e-23   7.738e-23   -22.079   -22.111    -0.033     (0)  
   FeH2PO4+        4.872e-23   4.527e-23   -22.312   -22.344    -0.032     (0)  
   Fe(OH)2         1.989e-24   1.991e-24   -23.701   -23.701     0.001     (0)  
   FeHSO4+         7.154e-27   6.634e-27   -26.145   -26.178    -0.033     (0)  
   Fe(OH)3-        2.652e-27   2.463e-27   -26.576   -26.609    -0.032     (0)  
   Fe(HS)2         0.000e+00   0.000e+00  -302.882  -302.881     0.001     (0)  
   Fe(HS)3-        0.000e+00   0.000e+00  -447.886  -447.919    -0.033     (0)  
Fe(3)         4.036e-08
   Fe(OH)3         2.979e-08   2.982e-08    -7.526    -7.525     0.001     (0)  
   Fe(OH)2+        9.805e-09   9.111e-09    -8.009    -8.040    -0.032     (0)  
   Fe(OH)4-        7.643e-10   7.102e-10    -9.117    -9.149    -0.032     (0)  
   FeOH+2          1.391e-12   1.035e-12   -11.857   -11.985    -0.129     (0)  
   FeF+2           5.002e-17   3.720e-17   -16.301   -16.429    -0.129     (0)  
   Fe+3            1.318e-17   7.127e-18   -16.880   -17.147    -0.267     (0)  
   FeSO4+          8.170e-18   7.587e-18   -17.088   -17.120    -0.032     (0)  
   FeF2+           5.396e-18   5.011e-18   -17.268   -17.300    -0.032     (0)  
   FeCl+2          2.879e-19   2.141e-19   -18.541   -18.669    -0.129     (0)  
   FeHPO4+         1.478e-19   1.373e-19   -18.830   -18.862    -0.032     (0)  
   FeH2PO4+2       1.118e-19   8.333e-20   -18.952   -19.079    -0.128     (0)  
   FeF3            2.873e-20   2.876e-20   -19.542   -19.541     0.001     (0)  
   Fe(SO4)2-       2.010e-20   1.864e-20   -19.697   -19.729    -0.033     (0)  
   FeCl2+          1.701e-21   1.580e-21   -20.769   -20.801    -0.032     (0)  
   Fe2(OH)2+4      1.340e-22   4.011e-23   -21.873   -22.397    -0.524     (0)  
   FeHSO4+2        7.722e-25   5.712e-25   -24.112   -24.243    -0.131     (0)  
   FeCl3           2.023e-25   2.025e-25   -24.694   -24.694     0.001     (0)  
   Fe3(OH)4+5      1.051e-27   1.597e-28   -26.978   -27.797    -0.819     (0)  
H(0)          0.000e+00
   H2              0.000e+00   0.000e+00   -45.720   -45.719     0.001     28.61
K             7.368e-05
   K+              7.363e-05   6.823e-05    -4.133    -4.166    -0.033      8.76
   KSO4-           5.200e-08   4.832e-08    -7.284    -7.316    -0.032     33.90
   KHPO4-          1.330e-11   1.236e-11   -10.876   -10.908    -0.032     38.76
Mg            2.132e-04
   Mg+2            2.062e-04   1.542e-04    -3.686    -3.812    -0.126    -21.41
   MgSO4           3.405e-06   3.409e-06    -5.468    -5.467     0.001      5.51
   MgHCO3+         3.195e-06   2.962e-06    -5.496    -5.528    -0.033      5.26
   MgCO3           3.127e-07   3.131e-07    -6.505    -6.504     0.001    -17.08
   MgF+            3.535e-08   3.280e-08    -7.452    -7.484    -0.032    -10.54
   MgOH+           1.052e-08   9.792e-09    -7.978    -8.009    -0.031     (0)  
   MgHPO4          9.134e-09   9.145e-09    -8.039    -8.039     0.001     (0)  
   MgPO4-          7.197e-10   6.688e-10    -9.143    -9.175    -0.032     (0)  
   MgH2PO4+        2.014e-10   1.871e-10    -9.696    -9.728    -0.032     (0)  
Mn(2)         1.082e-08
   Mn+2            8.442e-09   6.316e-09    -8.074    -8.200    -0.126    -20.43
   MnCO3           1.202e-09   1.203e-09    -8.920    -8.920     0.001     (0)  
   MnHCO3+         1.024e-09   9.506e-10    -8.990    -9.022    -0.032     (0)  
   MnSO4           1.116e-10   1.117e-10    -9.952    -9.952     0.001     26.41
   MnCl+           3.552e-11   3.298e-11   -10.450   -10.482    -0.032     -5.29
   MnOH+           3.280e-12   3.046e-12   -11.484   -11.516    -0.032     (0)  
   MnF+            1.751e-13   1.626e-13   -12.757   -12.789    -0.032     (0)  
   MnCl2           1.843e-14   1.846e-14   -13.734   -13.734     0.001     96.61
   Mn(NO3)2        2.553e-17   2.556e-17   -16.593   -16.592     0.001     43.33
   MnCl3-          7.017e-18   6.516e-18   -17.154   -17.186    -0.032     43.67
   Mn(OH)3-        5.034e-21   4.675e-21   -20.298   -20.330    -0.032     (0)  
Mn(3)         6.245e-21
   Mn+3            6.245e-21   3.377e-21   -20.204   -20.471    -0.267     (0)  
N(-3)         0.000e+00
   NH4+            0.000e+00   0.000e+00   -67.239   -67.273    -0.034     17.71
   NH3             0.000e+00   0.000e+00   -69.207   -69.206     0.001     24.03
   NH4SO4-         0.000e+00   0.000e+00   -70.066   -70.099    -0.033     35.04
N(0)          2.432e-24
   N2              1.216e-24   1.217e-24   -23.915   -23.915     0.001     29.29
N(3)          2.291e-18
   NO2-            2.291e-18   2.121e-18   -17.640   -17.674    -0.034     24.53
N(5)          3.414e-05
   NO3-            3.414e-05   3.160e-05    -4.467    -4.500    -0.034     28.69
   Mn(NO3)2        2.553e-17   2.556e-17   -16.593   -16.592     0.001     43.33
Na            1.069e-03
   Na+             1.068e-03   9.910e-04    -2.972    -3.004    -0.032     -1.88
   NaHCO3          9.835e-07   9.847e-07    -6.007    -6.007     0.001      1.80
   NaSO4-          5.888e-07   5.471e-07    -6.230    -6.262    -0.032     14.24
   NaCO3-          3.188e-08   2.956e-08    -7.497    -7.529    -0.033     -1.83
   NaF             2.120e-09   2.122e-09    -8.674    -8.673     0.001      6.93
   NaHPO4-         1.932e-10   1.795e-10    -9.714    -9.746    -0.032     33.99
   NaOH            1.945e-20   1.947e-20   -19.711   -19.711     0.001     (0)  
Ntg           5.818e-04
   Ntg             5.818e-04   5.825e-04    -3.235    -3.235     0.001     29.29
O(0)          5.991e-04
   O2              2.995e-04   2.999e-04    -3.524    -3.523     0.001     29.73
Oxg           3.063e-04
   Oxg             3.063e-04   3.067e-04    -3.514    -3.513     0.001     29.73
P             2.206e-07
   HPO4-2          1.249e-07   9.289e-08    -6.903    -7.032    -0.129      7.05
   H2PO4-          4.675e-08   4.344e-08    -7.330    -7.362    -0.032     33.42
   CaHPO4          3.512e-08   3.516e-08    -7.454    -7.454     0.001     (0)  
   MgHPO4          9.134e-09   9.145e-09    -8.039    -8.039     0.001     (0)  
   CaPO4-          2.774e-09   2.577e-09    -8.557    -8.589    -0.032     (0)  
   CaH2PO4+        8.220e-10   7.639e-10    -9.085    -9.117    -0.032     (0)  
   MgPO4-          7.197e-10   6.688e-10    -9.143    -9.175    -0.032     (0)  
   MgH2PO4+        2.014e-10   1.871e-10    -9.696    -9.728    -0.032     (0)  
   NaHPO4-         1.932e-10   1.795e-10    -9.714    -9.746    -0.032     33.99
   KHPO4-          1.330e-11   1.236e-11   -10.876   -10.908    -0.032     38.76
   PO4-3           2.539e-12   1.286e-12   -11.595   -11.891    -0.295    -22.28
   H3PO4           1.612e-13   1.614e-13   -12.793   -12.792     0.001     46.93
   FeHPO4+         1.478e-19   1.373e-19   -18.830   -18.862    -0.032     (0)  
   FeH2PO4+2       1.118e-19   8.333e-20   -18.952   -19.079    -0.128     (0)  
   FeHPO4          7.681e-22   7.690e-22   -21.115   -21.114     0.001     (0)  
   FeH2PO4+        4.872e-23   4.527e-23   -22.312   -22.344    -0.032     (0)  
S(-2)         0.000e+00
   HS-             0.000e+00   0.000e+00  -147.041  -147.075    -0.033     20.21
   H2S             0.000e+00   0.000e+00  -147.581  -147.580     0.001     37.13
   S-2             0.000e+00   0.000e+00  -152.545  -152.674    -0.129     (0)  
   Fe(HS)2         0.000e+00   0.000e+00  -302.882  -302.881     0.001     (0)  
   Fe(HS)3-        0.000e+00   0.000e+00  -447.886  -447.919    -0.033     (0)  
S(6)          1.755e-04
   SO4-2           1.559e-04   1.159e-04    -3.807    -3.936    -0.129     13.46
   CaSO4           1.554e-05   1.556e-05    -4.809    -4.808     0.001      7.17
   MgSO4           3.405e-06   3.409e-06    -5.468    -5.467     0.001      5.51
   NaSO4-          5.888e-07   5.471e-07    -6.230    -6.262    -0.032     14.24
   KSO4-           5.200e-08   4.832e-08    -7.284    -7.316    -0.032     33.90
   [N-3]H4SO4-     6.292e-10   5.835e-10    -9.201    -9.234    -0.033     35.04
   HSO4-           2.862e-10   2.654e-10    -9.543    -9.576    -0.033     39.70
   MnSO4           1.116e-10   1.117e-10    -9.952    -9.952     0.001     26.41
   CaHSO4+         2.758e-12   2.558e-12   -11.559   -11.592    -0.033     (0)  
   AlSO4+          5.631e-14   5.225e-14   -13.249   -13.282    -0.032     (0)  
   Al(SO4)2-       1.988e-16   1.845e-16   -15.701   -15.734    -0.032     (0)  
   FeSO4+          8.170e-18   7.587e-18   -17.088   -17.120    -0.032     (0)  
   FeSO4           3.698e-20   3.702e-20   -19.432   -19.432     0.001     28.13
   Fe(SO4)2-       2.010e-20   1.864e-20   -19.697   -19.729    -0.033     (0)  
   AlHSO4+2        1.637e-22   1.211e-22   -21.786   -21.917    -0.131     (0)  
   FeHSO4+2        7.722e-25   5.712e-25   -24.112   -24.243    -0.131     (0)  
   FeHSO4+         7.154e-27   6.634e-27   -26.145   -26.178    -0.033     (0)  
   NH4SO4-         0.000e+00   0.000e+00   -70.066   -70.099    -0.033     35.04
Si            1.221e-04
   H4SiO4          1.216e-04   1.217e-04    -3.915    -3.915     0.001     52.81
   H3SiO4-         5.242e-07   4.861e-07    -6.280    -6.313    -0.033     27.77
   H2SiO4-2        9.390e-13   7.001e-13   -12.027   -12.155    -0.128     (0)  
   SiF6-2          8.166e-37   6.074e-37   -36.088   -36.217    -0.129     42.13
Turb          2.021e-04
   Turb            2.021e-04   2.023e-04    -3.694    -3.694     0.001     (0)  
Uvab          1.066e-02
   Uvab            1.066e-02   1.067e-02    -1.972    -1.972     0.001     (0)  
[N+3]         7.142e-12
   [N+3]O2-        7.142e-12   6.611e-12   -11.146   -11.180    -0.034     24.53
[N-3]         4.278e-07
   [N-3]H4+        4.226e-07   3.908e-07    -6.374    -6.408    -0.034     17.71
   [N-3]H3         4.552e-09   4.558e-09    -8.342    -8.341     0.001     24.03
   [N-3]H4SO4-     6.292e-10   5.835e-10    -9.201    -9.234    -0.033     35.04

--------------------------Distribution of alkalinity---------------------------

	Total alkalinity (eq/kgw)  =   1.855e-03

	Species          Alkalinity    Molality   Alk/Mol

	HCO3-             1.817e-03   1.817e-03      1.00
	CaHCO3+           1.613e-05   1.613e-05      1.00
	CO3-2             6.433e-06   3.216e-06      2.00
	CaCO3             5.648e-06   2.824e-06      2.00
	Al(OH)4-          3.633e-06   9.081e-07      4.00
	MgHCO3+           3.195e-06   3.195e-06      1.00
	NaHCO3            9.835e-07   9.835e-07      1.00
	MgCO3             6.254e-07   3.127e-07      2.00
	H3SiO4-           5.242e-07   5.242e-07      1.00
	OH-               2.121e-07   2.121e-07      1.00
	HPO4-2            1.249e-07   1.249e-07      1.00
	NaCO3-            6.375e-08   3.188e-08      2.00
	Al(OH)3           4.064e-08   1.355e-08      3.00
	CaHPO4            3.512e-08   3.512e-08      1.00
	Fe(OH)3           2.979e-08   2.979e-08      1.00
	H+               -2.972e-08   2.972e-08     -1.00
	MgOH+             1.052e-08   1.052e-08      1.00
	Al(OH)2+          1.007e-08   5.034e-09      2.00
	MgHPO4            9.134e-09   9.134e-09      1.00
	CaPO4-            5.547e-09   2.774e-09      2.00
	CaOH+             5.166e-09   5.166e-09      1.00
	[N-3]H3           4.552e-09   4.552e-09      1.00
	MnCO3             2.403e-09   1.202e-09      2.00
	Fe(OH)4-          1.529e-09   7.643e-10      2.00
	MgPO4-            1.439e-09   7.197e-10      2.00
	MnHCO3+           1.024e-09   1.024e-09      1.00
	HSO4-            -2.862e-10   2.862e-10     -1.00
	NaHPO4-           1.932e-10   1.932e-10      1.00
	HF               -1.348e-10   1.348e-10     -1.00
	AlOH+2            4.533e-11   4.533e-11      1.00
	KHPO4-            1.330e-11   1.330e-11      1.00
	PO4-3             5.077e-12   2.539e-12      2.00
	MnOH+             3.280e-12   3.280e-12      1.00
	CaHSO4+          -2.758e-12   2.758e-12     -1.00
	H2SiO4-2          1.878e-12   9.390e-13      2.00
	FeOH+2           -1.391e-12   1.391e-12     -1.00
	H3PO4            -1.612e-13   1.612e-13     -1.00
	HF2-             -1.941e-15   1.941e-15     -1.00
	FeF+2            -1.000e-16   5.002e-17     -2.00
	Fe+3             -2.636e-17   1.318e-17     -2.00
	FeSO4+           -1.634e-17   8.170e-18     -2.00
	FeF2+            -1.079e-17   5.396e-18     -2.00
	FeCl+2           -5.758e-19   2.879e-19     -2.00
	FeHCO3+           3.786e-19   3.786e-19      1.00
	FeCO3             2.389e-19   1.195e-19      2.00
	FeH2PO4+2        -2.235e-19   1.118e-19     -2.00
	FeHPO4+          -1.478e-19   1.478e-19     -1.00
	FeF3             -5.745e-20   2.873e-20     -2.00
	Fe(SO4)2-        -4.021e-20   2.010e-20     -2.00
	NaOH              1.945e-20   1.945e-20      1.00
	Mn(OH)3-          1.510e-20   5.034e-21      3.00
	FeOH+             1.403e-20   1.403e-20      1.00
	FeCl2+           -3.402e-21   1.701e-21     -2.00
	FeHPO4            7.681e-22   7.681e-22      1.00
	Fe2(OH)2+4       -2.680e-22   1.340e-22     -2.00
	AlHSO4+2         -1.637e-22   1.637e-22     -1.00
	Fe(OH)2           3.978e-24   1.989e-24      2.00
	FeHSO4+2         -2.317e-24   7.722e-25     -3.00
	FeCl3            -4.045e-25   2.023e-25     -2.00
	Fe(OH)3-          7.956e-27   2.652e-27      3.00
	FeHSO4+          -7.154e-27   7.154e-27     -1.00
	Fe3(OH)4+5       -2.103e-27   1.051e-27     -2.00
	SiF6-2           -3.267e-36   8.166e-37     -4.00
	Fe(HS)3-          0.000e+00   0.000e+00      3.00
	S-2               0.000e+00   0.000e+00      2.00
	Fe(HS)2           0.000e+00   0.000e+00      2.00
	NH3               0.000e+00   0.000e+00      1.00
	HS-               0.000e+00   0.000e+00      1.00

------------------------------Saturation indices-------------------------------

  Phase               SI** log IAP   log K(290 K,   1 atm)

  [N-3]H3(g)      -10.30     -8.34    1.96  [N-3]H3
  Al(OH)3(a)       -1.45      9.87   11.32  Al(OH)3
  Albite           -2.31    -20.82  -18.51  NaAlSi3O8
  Alunite          -4.69     -5.10   -0.41  KAl3(SO4)2(OH)6
  Anhydrite        -2.84     -7.03   -4.19  CaSO4
  Anorthite        -3.13    -23.07  -19.94  CaAl2Si2O8
  Aragonite        -0.43     -8.72   -8.29  CaCO3
  Ca-Montmorillonite   2.03    -44.14  -46.17  Ca0.165Al2.33Si3.67O10(OH)2
  Calcite          -0.28     -8.72   -8.44  CaCO3
  CH4(g)         -146.10   -148.88   -2.78  CH4
  Chalcedony       -0.27     -3.91   -3.64  SiO2
  Chlorite(14A)    -6.86     64.50   71.36  Mg5Al2Si3O10(OH)8
  Chrysotile       -7.12     26.07   33.19  Mg3Si2O5(OH)4
  CO2(g)           -2.56     -3.93   -1.37  CO2
  Dolomite         -1.24    -18.15  -16.90  CaMg(CO3)2
  Fe(OH)3(a)        0.63      5.52    4.89  Fe(OH)3
  FeS(ppt)       -153.29   -157.20   -3.92  FeS
  Fluorite         -3.26    -13.95  -10.70  CaF2
  Gibbsite          1.31      9.87    8.56  Al(OH)3
  Goethite          6.24      5.52   -0.72  FeOOH
  Gypsum           -2.45     -7.03   -4.58  CaSO4:2H2O
  H2(g)           -42.64    -45.72   -3.08  H2
  H2O(g)           -1.71     -0.00    1.71  H2O
  H2S(g)         -146.62   -154.63   -8.01  H2S
  Halite           -7.46     -5.90    1.56  NaCl
  Hausmannite       0.34     63.34   63.01  Mn3O4
  Hematite         14.45     11.04   -3.40  Fe2O3
  Hydroxyapatite   -3.64     -6.35   -2.71  Ca5(PO4)3OH
  Illite            1.15    -40.19  -41.34  K0.6Mg0.25Al2.3Si3.5O10(OH)2
  Jarosite-K       -9.55    -18.14   -8.59  KFe3(SO4)2(OH)6
  K-feldspar       -0.80    -21.98  -21.18  KAlSi3O8
  K-mica            7.38     21.25   13.87  KAl3Si3O10(OH)2
  Kaolinite         3.78     11.91    8.13  Al2Si2O5(OH)4
  Mackinawite    -152.55   -157.20   -4.65  FeS
  Manganite         2.88     28.22   25.34  MnOOH
  Melanterite     -19.31    -21.62   -2.31  FeSO4:7H2O
  N2(g)           -20.79    -23.91   -3.12  N2
  NH3(g)          -71.17    -69.21    1.96  NH3
  Ntg(g)           -0.11     -3.23   -3.12  Ntg
  O2(g)            -0.69     -3.52   -2.83  O2
  Oxg(g)           -0.68     -3.51   -2.83  Oxg
  Pyrite         -250.53   -269.23  -18.70  FeS2
  Pyrochroite      -8.29      6.91   15.20  Mn(OH)2
  Pyrolusite        6.86     49.52   42.66  MnO2:H2O
  Quartz            0.18     -3.91   -4.10  SiO2
  Rhodochrosite    -2.72    -13.82  -11.10  MnCO3
  Sepiolite        -5.11     10.86   15.97  Mg2Si3O7.5OH:3H2O
  Sepiolite(d)     -7.80     10.86   18.66  Mg2Si3O7.5OH:3H2O
  Siderite        -12.46    -23.30  -10.84  FeCO3
  SiO2(a)          -1.14     -3.91   -2.78  SiO2
  Sulfur         -110.05   -104.98    5.07  S
  Sylvite          -7.92     -7.06    0.86  KCl
  Talc             -4.06     18.25   22.31  Mg3Si4O10(OH)2
  Vaterite         -0.86     -8.72   -7.85  CaCO3
  Vivianite       -40.83    -76.83  -36.00  Fe3(PO4)2:8H2O

**For a gas, SI = log10(fugacity). Fugacity = pressure * phi / 1 atm.
  For ideal gases, phi = 1.

------------------
End of simulation.
------------------

-------------------------------------
Reading input data for simulation 26.
-------------------------------------

	DATABASE C:\Program Files\USGS\phreeqc-3.7.0-15749-x64\database\Stimela.dat
ERROR: DATABASE must be the first keyword in the input file.
	SOLUTION_MASTER_SPECIES
		Turb		Turb	0.0	Turb		1.0
		Doc		Doc	0.0	Doc		12.0111
		Uvab		Uvab	0.0	Uvab		1.0
	SOLUTION_SPECIES
		Turb	= Turb
		Doc	= Doc
		Uvab	= Uvab
	PRINT
		alkalinity		true
	SELECTED_OUTPUT 1
		file			output/selected.csv
		reset			false
		high_precision 	true
		simulation		true
		state			true
		solution		true
		step			true
		ph			true
		pe			true
		temperature		true
		alkalinity		true
		totals			C   Ca Mg Al Fe  Mn  S  P Na Cl
		totals			[N-3] N(3) N(5) K F Si
		totals			Turb Doc Uvab
		molalities		O2  Oxg  CO2  HCO3-  CO3-2  Ca+2  CaHCO3+  CaCO3  CaSO4  Mg+2  MgHCO3+ MgCO3 MgSO4 SO4-2  NaHCO3  NaCO3- H+ OH-  PO4-3 HPO4-2 H2PO4-
		saturation_indices	Calcite Aragonite  Gypsum  Anhydrite  Dolomite Hydroxyapatite
		saturation_indices	O2(g)  Ntg(g)  CO2(g)  H2O(g)  Oxg(g)
	USER_PUNCH
		headings	Ion_Str  Conduct  Rho   TotWat   Charge_Err   Charge_Bal   Cation  Anion pO2 pNtg pCO2 pH2O CCPP Desc
		start
			10	PUNCH MU
			20	PUNCH SC/10
			30	PUNCH RHO
			40 	PUNCH TOT("water")
			50	PUNCH PERCENT_ERROR
			60	PUNCH CHARGE_BALANCE
			70	Anion = ( TOT("charge")/(PERCENT_ERROR/100) - TOT("charge") )/2
			80	PUNCH ( Anion + TOT("charge") )
			90	PUNCH Anion
			100	PUNCH PR_P("O2(g)") PR_P("Ntg(g)") PR_P("CO2(g)") PR_P("H2O(g)")
			110	PUNCH EQUI_DELTA("Calcite")/TOT("water")
			120	PUNCH DESCRIPTION
		End
ERROR: Calculations terminating due to input errors.
Stopping.
