WARNING: Database file from DATABASE keyword is used; command line argument ignored.
   Input file: input\working_solution_input_sheet.in
  Output file: output\working_solution_input_sheet.out
Database file: C:\Program Files\USGS\phreeqc-3.7.0-15749-x64\database\Stimela.dat

------------------
Reading data base.
------------------

	SOLUTION_MASTER_SPECIES												
	SOLUTION_SPECIES												
	PHASES												
	EXCHANGE_MASTER_SPECIES												
	EXCHANGE_SPECIES												
	SURFACE_MASTER_SPECIES												
	SURFACE_SPECIES												
	RATES												
	END												
------------------------------------
Reading input data for simulation 1.
------------------------------------

	DATABASE C:\Program Files\USGS\phreeqc-3.7.0-15749-x64\database\Stimela.dat
	SOLUTION_MASTER_SPECIES
		Turb		Turb	0.0	Turb		1.0
		Doc		Doc	0.0	Doc		12.0111
		Uvab		Uvab	0.0	Uvab		1.0
	SOLUTION_SPECIES
		Turb	= Turb
		Doc	= Doc
		Uvab	= Uvab
	PRINT
		alkalinity		true
	SELECTED_OUTPUT 1
		file			output/selected.csv
		reset			false
		high_precision 	true
		simulation		true
		state			true
		solution		true
		step			true
		ph			true
		pe			true
		temperature		true
		alkalinity		true
		totals			C   Ca Mg Al Fe  Mn  S  P Na Cl
		totals			[N-3] N(3) N(5) K F Si
		totals			Turb Doc Uvab
		molalities		O2  Oxg  CO2  HCO3-  CO3-2  Ca+2  CaHCO3+  CaCO3  CaSO4  Mg+2  MgHCO3+ MgCO3 MgSO4 SO4-2  NaHCO3  NaCO3- H+ OH-  PO4-3 HPO4-2 H2PO4-
		saturation_indices	Calcite Aragonite  Gypsum  Anhydrite  Dolomite Hydroxyapatite
		saturation_indices	O2(g)  Ntg(g)  CO2(g)  H2O(g)  Oxg(g)
	USER_PUNCH
		headings	Ion_Str  Conduct  Rho   TotWat   Charge_Err   Charge_Bal   Cation  Anion pO2 pNtg pCO2 pH2O CCPP Desc
		start
			10	PUNCH MU
			20	PUNCH SC/10
			30	PUNCH RHO
			40 	PUNCH TOT("water")
			50	PUNCH PERCENT_ERROR
			60	PUNCH CHARGE_BALANCE
			70	Anion = ( TOT("charge")/(PERCENT_ERROR/100) - TOT("charge") )/2
			80	PUNCH ( Anion + TOT("charge") )
			90	PUNCH Anion
			100	PUNCH PR_P("O2(g)") PR_P("Ntg(g)") PR_P("CO2(g)") PR_P("H2O(g)")
			110	PUNCH EQUI_DELTA("Calcite")/TOT("water")
			120	PUNCH DESCRIPTION
		End
------------------
End of simulation.
------------------

------------------------------------
Reading input data for simulation 2.
------------------------------------

	SOLUTION_SPREAD	
		units	mg/L
		redox		O(-2)/O(0)								
		water    		1
	number	temp	pH	O(0)	Turb	Uvab	Si	Doc	Ca	Mg	Na	K	Al	Fe	Mn	[N-3]	Alkalinity	Cl	N(+5)	[N+3]	S(6)	F	P 	density	Oxg	Ntg
		 	 	as O			as Si	as C	as Ca	as Mg	as Na	as K	ug/l as Al	as Fe	as Mn	as N	as HCO3	as Cl	as N	as N	as SO4	as F	ug/l as P
	1	20.1	7.6	7.8	7.1400000	32.6700000	5.45343	10	44.487	4.99039	18.600	2.88	87.7280000	0.92561	0.0760000	0.0620000	110	26.3	1.264	0.0000001	16	0.0655692	32.25	1	1 Oxg(g)  -0.6819	1 Ntg(g) -0.1024	
	END
-------------------------------------------
Beginning of initial solution calculations.
-------------------------------------------

Initial solution 1.	

-----------------------------Solution composition------------------------------

	Elements           Molality       Moles

	Al                3.252e-06   3.252e-06
	Alkalinity        1.803e-03   1.803e-03
	Ca                1.110e-03   1.110e-03
	Cl                7.421e-04   7.421e-04
	Doc               8.328e-04   8.328e-04
	F                 3.452e-06   3.452e-06
	Fe                1.658e-05   1.658e-05
	K                 7.368e-05   7.368e-05
	Mg                2.054e-04   2.054e-04
	Mn                1.384e-06   1.384e-06
	N(5)              9.027e-05   9.027e-05
	Na                8.093e-04   8.093e-04
	Ntg               5.654e-04   5.654e-04  Equilibrium with Ntg(g)
	O(0)              4.877e-04   4.877e-04
	Oxg               2.900e-04   2.900e-04  Equilibrium with Oxg(g)
	P                 1.041e-06   1.041e-06
	S(6)              1.666e-04   1.666e-04
	Si                1.942e-04   1.942e-04
	Turb              7.142e-03   7.142e-03
	Uvab              3.268e-02   3.268e-02
	[N+3]             7.141e-12   7.141e-12
	[N-3]             4.428e-06   4.428e-06

----------------------------Description of solution----------------------------

                                       pH  =   7.600    
                                       pe  =   4.000    
      Specific Conductance (µS/cm,  20°C)  = 298
                          Density (g/cm³)  =   0.99843
                               Volume (L)  =   1.00190
                        Activity of water  =   0.999
                 Ionic strength (mol/kgw)  =   4.597e-03
                       Mass of water (kg)  =   1.000e+00
                    Total carbon (mol/kg)  =   1.865e-03
                       Total CO2 (mol/kg)  =   1.865e-03
                         Temperature (°C)  =  20.10
                  Electrical balance (eq)  =   5.745e-04
 Percent error, 100*(Cat-|An|)/(Cat+|An|)  =   9.06
                               Iterations  =   8
                                  Total H  = 1.110212e+02
                                  Total O  = 5.551706e+01

---------------------------------Redox couples---------------------------------

	Redox couple             pe  Eh (volts)

	O(-2)/O(0)          13.4298      0.7814

----------------------------Distribution of species----------------------------

                                               Log       Log       Log    mole V
   Species          Molality    Activity  Molality  Activity     Gamma   cm³/mol

   OH-             2.954e-07   2.745e-07    -6.530    -6.561    -0.032     -4.29
   H+              2.683e-08   2.512e-08    -7.571    -7.600    -0.029      0.00
   H2O             5.551e+01   9.992e-01     1.744    -0.000     0.000     18.05
Al            3.252e-06
   Al(OH)4-        3.199e-06   2.977e-06    -5.495    -5.526    -0.031     (0)  
   Al(OH)3         4.211e-08   4.216e-08    -7.376    -7.375     0.000     (0)  
   Al(OH)2+        1.120e-08   1.044e-08    -7.951    -7.981    -0.031     (0)  
   AlOH+2          6.897e-11   5.202e-11   -10.161   -10.284    -0.122    -27.47
   AlF2+           9.334e-12   8.699e-12   -11.030   -11.061    -0.031     (0)  
   AlF+2           7.430e-12   5.604e-12   -11.129   -11.251    -0.122     (0)  
   AlF3            3.459e-13   3.463e-13   -12.461   -12.461     0.000     (0)  
   Al+3            3.285e-13   1.817e-13   -12.483   -12.741    -0.257    -41.72
   AlSO4+          6.413e-14   5.969e-14   -13.193   -13.224    -0.031     (0)  
   AlF4-           4.702e-16   4.377e-16   -15.328   -15.359    -0.031     (0)  
   Al(SO4)2-       2.196e-16   2.044e-16   -15.658   -15.690    -0.031     (0)  
   AlHSO4+2        1.706e-22   1.277e-22   -21.768   -21.894    -0.126     (0)  
C(4)          1.865e-03
   HCO3-           1.739e-03   1.621e-03    -2.760    -2.790    -0.031     24.33
   CO2             9.790e-05   9.800e-05    -4.009    -4.009     0.000     30.34
   CaHCO3+         1.653e-05   1.542e-05    -4.782    -4.812    -0.030      9.50
   CO3-2           3.611e-06   2.723e-06    -5.442    -5.565    -0.122     -5.59
   CaCO3           3.386e-06   3.390e-06    -5.470    -5.470     0.000    -14.61
   MgHCO3+         3.002e-06   2.792e-06    -5.523    -5.554    -0.031      5.36
   NaHCO3          7.045e-07   7.052e-07    -6.152    -6.152     0.000      1.80
   MgCO3           3.615e-07   3.618e-07    -6.442    -6.441     0.000    -17.08
   MnCO3           1.744e-07   1.746e-07    -6.758    -6.758     0.000     (0)  
   MnHCO3+         1.252e-07   1.166e-07    -6.902    -6.933    -0.031     (0)  
   NaCO3-          3.190e-08   2.967e-08    -7.496    -7.528    -0.031     -1.48
   FeHCO3+         1.328e-16   1.236e-16   -15.877   -15.908    -0.031     (0)  
   FeCO3           4.976e-17   4.981e-17   -16.303   -16.303     0.000     (0)  
Ca            1.110e-03
   Ca+2            1.075e-03   8.103e-04    -2.969    -3.091    -0.123    -18.09
   CaHCO3+         1.653e-05   1.542e-05    -4.782    -4.812    -0.030      9.50
   CaSO4           1.537e-05   1.538e-05    -4.813    -4.813     0.000      7.30
   CaCO3           3.386e-06   3.390e-06    -5.470    -5.470     0.000    -14.61
   CaHPO4          1.800e-07   1.802e-07    -6.745    -6.744     0.000     (0)  
   CaPO4-          1.658e-08   1.545e-08    -7.780    -7.811    -0.031     (0)  
   CaOH+           5.751e-09   5.349e-09    -8.240    -8.272    -0.031     (0)  
   CaH2PO4+        3.743e-09   3.489e-09    -8.427    -8.457    -0.031     (0)  
   CaHSO4+         2.552e-12   2.374e-12   -11.593   -11.624    -0.031     (0)  
Cl            7.421e-04
   Cl-             7.421e-04   6.899e-04    -3.130    -3.161    -0.032     17.94
   MnCl+           2.436e-09   2.269e-09    -8.613    -8.644    -0.031     -4.38
   MnCl2           6.826e-13   6.833e-13   -12.166   -12.165     0.000     92.34
   MnCl3-          1.394e-16   1.298e-16   -15.856   -15.887    -0.031     43.57
   FeCl+2          3.525e-17   2.652e-17   -16.453   -16.576    -0.123     (0)  
   FeCl+           7.806e-19   7.261e-19   -18.108   -18.139    -0.031     (0)  
   FeCl2+          1.028e-19   9.573e-20   -18.988   -19.019    -0.031     (0)  
   FeCl3           6.598e-24   6.605e-24   -23.181   -23.180     0.000     (0)  
Doc           8.328e-04
   Doc             8.328e-04   8.337e-04    -3.079    -3.079     0.000     (0)  
F             3.452e-06
   F-              3.420e-06   3.178e-06    -5.466    -5.498    -0.032     -1.35
   MgF+            3.095e-08   2.880e-08    -7.509    -7.541    -0.031    -10.54
   NaF             1.374e-09   1.376e-09    -8.862    -8.861     0.000      7.06
   HF              1.096e-10   1.097e-10    -9.960    -9.960     0.000     12.26
   MnF+            1.906e-11   1.775e-11   -10.720   -10.751    -0.031     (0)  
   AlF2+           9.334e-12   8.699e-12   -11.030   -11.061    -0.031     (0)  
   AlF+2           7.430e-12   5.604e-12   -11.129   -11.251    -0.122     (0)  
   AlF3            3.459e-13   3.463e-13   -12.461   -12.461     0.000     (0)  
   FeF+2           9.247e-15   6.959e-15   -14.034   -14.157    -0.123     (0)  
   HF2-            1.381e-15   1.284e-15   -14.860   -14.891    -0.031     21.85
   FeF2+           8.910e-16   8.299e-16   -15.050   -15.081    -0.031     (0)  
   AlF4-           4.702e-16   4.377e-16   -15.328   -15.359    -0.031     (0)  
   FeF3            4.106e-18   4.110e-18   -17.387   -17.386     0.000     (0)  
   FeF+            2.605e-20   2.423e-20   -19.584   -19.616    -0.031     (0)  
   SiF6-2          2.533e-37   1.906e-37   -36.596   -36.720    -0.123     42.37
Fe(2)         1.213e-15
   Fe+2            1.007e-15   7.624e-16   -14.997   -15.118    -0.121    -22.35
   FeHCO3+         1.328e-16   1.236e-16   -15.877   -15.908    -0.031     (0)  
   FeCO3           4.976e-17   4.981e-17   -16.303   -16.303     0.000     (0)  
   FeSO4           1.370e-17   1.372e-17   -16.863   -16.863     0.000     24.48
   FeOH+           7.097e-18   6.610e-18   -17.149   -17.180    -0.031     (0)  
   FeHPO4          1.350e-18   1.351e-18   -17.870   -17.869     0.000     (0)  
   FeCl+           7.806e-19   7.261e-19   -18.108   -18.139    -0.031     (0)  
   FeH2PO4+        7.594e-20   7.077e-20   -19.120   -19.150    -0.031     (0)  
   FeF+            2.605e-20   2.423e-20   -19.584   -19.616    -0.031     (0)  
   Fe(OH)2         1.449e-21   1.451e-21   -20.839   -20.838     0.000     (0)  
   FeHSO4+         2.402e-24   2.234e-24   -23.619   -23.651    -0.031     (0)  
   Fe(OH)3-        2.192e-24   2.042e-24   -23.659   -23.690    -0.031     (0)  
Fe(3)         1.658e-05
   Fe(OH)3         1.283e-05   1.284e-05    -4.892    -4.891     0.000     (0)  
   Fe(OH)2+        3.341e-06   3.114e-06    -5.476    -5.507    -0.031     (0)  
   Fe(OH)4-        4.092e-07   3.814e-07    -6.388    -6.419    -0.031     (0)  
   FeOH+2          3.795e-10   2.856e-10    -9.421    -9.544    -0.123     (0)  
   FeF+2           9.247e-15   6.959e-15   -14.034   -14.157    -0.123     (0)  
   Fe+3            2.696e-15   1.491e-15   -14.569   -14.827    -0.257     (0)  
   FeSO4+          1.742e-15   1.622e-15   -14.759   -14.790    -0.031     (0)  
   FeF2+           8.910e-16   8.299e-16   -15.050   -15.081    -0.031     (0)  
   FeHPO4+         1.630e-16   1.518e-16   -15.788   -15.819    -0.031     (0)  
   FeH2PO4+2       9.853e-17   7.431e-17   -16.006   -16.129    -0.122     (0)  
   FeCl+2          3.525e-17   2.652e-17   -16.453   -16.576    -0.123     (0)  
   Fe2(OH)2+4      8.581e-18   2.697e-18   -17.066   -17.569    -0.503     (0)  
   Fe(SO4)2-       4.147e-18   3.857e-18   -17.382   -17.414    -0.031     (0)  
   FeF3            4.106e-18   4.110e-18   -17.387   -17.386     0.000     (0)  
   FeCl2+          1.028e-19   9.573e-20   -18.988   -19.019    -0.031     (0)  
   Fe3(OH)4+5      1.695e-20   2.778e-21   -19.771   -20.556    -0.786     (0)  
   FeHSO4+2        1.466e-22   1.097e-22   -21.834   -21.960    -0.126     (0)  
   FeCl3           6.598e-24   6.605e-24   -23.181   -23.180     0.000     (0)  
H(0)          0.000e+00
   H2              0.000e+00   0.000e+00   -45.188   -45.188     0.000     28.61
K             7.368e-05
   K+              7.363e-05   6.844e-05    -4.133    -4.165    -0.032      8.87
   KSO4-           5.242e-08   4.885e-08    -7.280    -7.311    -0.031     34.00
   KHPO4-          6.374e-11   5.941e-11   -10.196   -10.226    -0.031     38.52
Mg            2.054e-04
   Mg+2            1.985e-04   1.501e-04    -3.702    -3.824    -0.121    -21.53
   MgSO4           3.426e-06   3.430e-06    -5.465    -5.465     0.000      5.64
   MgHCO3+         3.002e-06   2.792e-06    -5.523    -5.554    -0.031      5.36
   MgCO3           3.615e-07   3.618e-07    -6.442    -6.441     0.000    -17.08
   MgHPO4          4.509e-08   4.514e-08    -7.346    -7.345     0.000     (0)  
   MgF+            3.095e-08   2.880e-08    -7.509    -7.541    -0.031    -10.54
   MgOH+           1.481e-08   1.383e-08    -7.829    -7.859    -0.030     (0)  
   MgPO4-          4.144e-09   3.861e-09    -8.383    -8.413    -0.031     (0)  
   MgH2PO4+        8.832e-10   8.231e-10    -9.054    -9.085    -0.031     (0)  
Mn(2)         1.384e-06
   Mn+2            1.067e-06   8.072e-07    -5.972    -6.093    -0.121    -20.40
   MnCO3           1.744e-07   1.746e-07    -6.758    -6.758     0.000     (0)  
   MnHCO3+         1.252e-07   1.166e-07    -6.902    -6.933    -0.031     (0)  
   MnSO4           1.445e-08   1.446e-08    -7.840    -7.840     0.000     24.87
   MnCl+           2.436e-09   2.269e-09    -8.613    -8.644    -0.031     -4.38
   MnOH+           5.904e-10   5.499e-10    -9.229    -9.260    -0.031     (0)  
   MnF+            1.906e-11   1.775e-11   -10.720   -10.751    -0.031     (0)  
   MnCl2           6.826e-13   6.833e-13   -12.166   -12.165     0.000     92.34
   Mn(NO3)2        2.281e-14   2.283e-14   -13.642   -13.641     0.000     42.42
   MnCl3-          1.394e-16   1.298e-16   -15.856   -15.887    -0.031     43.57
   Mn(OH)3-        8.646e-19   8.053e-19   -18.063   -18.094    -0.031     (0)  
Mn(3)         5.861e-19
   Mn+3            5.861e-19   3.242e-19   -18.232   -18.489    -0.257     (0)  
N(5)          9.027e-05
   NO3-            9.027e-05   8.383e-05    -4.044    -4.077    -0.032     29.02
   Mn(NO3)2        2.281e-14   2.283e-14   -13.642   -13.641     0.000     42.42
Na            8.093e-04
   Na+             8.081e-04   7.523e-04    -3.093    -3.124    -0.031     -1.70
   NaHCO3          7.045e-07   7.052e-07    -6.152    -6.152     0.000      1.80
   NaSO4-          4.344e-07   4.048e-07    -6.362    -6.393    -0.031     14.17
   NaCO3-          3.190e-08   2.967e-08    -7.496    -7.528    -0.031     -1.48
   NaF             1.374e-09   1.376e-09    -8.862    -8.861     0.000      7.06
   NaHPO4-         7.007e-10   6.530e-10    -9.154    -9.185    -0.031     33.89
   NaOH            2.063e-20   2.065e-20   -19.686   -19.685     0.000     (0)  
Ntg           5.654e-04
   Ntg             5.654e-04   5.660e-04    -3.248    -3.247     0.000     29.29
O(0)          4.877e-04
   O2              2.438e-04   2.441e-04    -3.613    -3.612     0.000     29.99
Oxg           2.900e-04
   Oxg             2.900e-04   2.903e-04    -3.538    -3.537     0.000     29.99
P             1.041e-06
   HPO4-2          5.915e-07   4.452e-07    -6.228    -6.351    -0.123      6.98
   H2PO4-          1.987e-07   1.852e-07    -6.702    -6.732    -0.031     33.35
   CaHPO4          1.800e-07   1.802e-07    -6.745    -6.744     0.000     (0)  
   MgHPO4          4.509e-08   4.514e-08    -7.346    -7.345     0.000     (0)  
   CaPO4-          1.658e-08   1.545e-08    -7.780    -7.811    -0.031     (0)  
   MgPO4-          4.144e-09   3.861e-09    -8.383    -8.413    -0.031     (0)  
   CaH2PO4+        3.743e-09   3.489e-09    -8.427    -8.457    -0.031     (0)  
   MgH2PO4+        8.832e-10   8.231e-10    -9.054    -9.085    -0.031     (0)  
   NaHPO4-         7.007e-10   6.530e-10    -9.154    -9.185    -0.031     33.89
   KHPO4-          6.374e-11   5.941e-11   -10.196   -10.226    -0.031     38.52
   PO4-3           1.389e-11   7.232e-12   -10.857   -11.141    -0.283    -22.53
   H3PO4           6.448e-13   6.454e-13   -12.191   -12.190     0.000     47.12
   FeHPO4+         1.630e-16   1.518e-16   -15.788   -15.819    -0.031     (0)  
   FeH2PO4+2       9.853e-17   7.431e-17   -16.006   -16.129    -0.122     (0)  
   FeHPO4          1.350e-18   1.351e-18   -17.870   -17.869     0.000     (0)  
   FeH2PO4+        7.594e-20   7.077e-20   -19.120   -19.150    -0.031     (0)  
S(6)          1.666e-04
   SO4-2           1.473e-04   1.108e-04    -3.832    -3.955    -0.124     13.94
   CaSO4           1.537e-05   1.538e-05    -4.813    -4.813     0.000      7.30
   MgSO4           3.426e-06   3.430e-06    -5.465    -5.465     0.000      5.64
   NaSO4-          4.344e-07   4.048e-07    -6.362    -6.393    -0.031     14.17
   KSO4-           5.242e-08   4.885e-08    -7.280    -7.311    -0.031     34.00
   MnSO4           1.445e-08   1.446e-08    -7.840    -7.840     0.000     24.87
   [N-3]H4SO4-     6.205e-09   5.772e-09    -8.207    -8.239    -0.031     36.08
   HSO4-           2.620e-10   2.437e-10    -9.582    -9.613    -0.031     39.95
   CaHSO4+         2.552e-12   2.374e-12   -11.593   -11.624    -0.031     (0)  
   AlSO4+          6.413e-14   5.969e-14   -13.193   -13.224    -0.031     (0)  
   FeSO4+          1.742e-15   1.622e-15   -14.759   -14.790    -0.031     (0)  
   Al(SO4)2-       2.196e-16   2.044e-16   -15.658   -15.690    -0.031     (0)  
   FeSO4           1.370e-17   1.372e-17   -16.863   -16.863     0.000     24.48
   Fe(SO4)2-       4.147e-18   3.857e-18   -17.382   -17.414    -0.031     (0)  
   AlHSO4+2        1.706e-22   1.277e-22   -21.768   -21.894    -0.126     (0)  
   FeHSO4+2        1.466e-22   1.097e-22   -21.834   -21.960    -0.126     (0)  
   FeHSO4+         2.402e-24   2.234e-24   -23.619   -23.651    -0.031     (0)  
Si            1.942e-04
   H4SiO4          1.932e-04   1.934e-04    -3.714    -3.714     0.000     52.52
   H3SiO4-         1.024e-06   9.521e-07    -5.990    -6.021    -0.031     27.87
   H2SiO4-2        2.461e-12   1.856e-12   -11.609   -11.731    -0.122     (0)  
   SiF6-2          2.533e-37   1.906e-37   -36.596   -36.720    -0.123     42.37
Turb          7.142e-03
   Turb            7.142e-03   7.150e-03    -2.146    -2.146     0.000     (0)  
Uvab          3.268e-02
   Uvab            3.268e-02   3.271e-02    -1.486    -1.485     0.000     (0)  
[N+3]         7.141e-12
   [N+3]O2-        7.141e-12   6.632e-12   -11.146   -11.178    -0.032     24.72
[N-3]         4.428e-06
   [N-3]H4+        4.357e-06   4.043e-06    -5.361    -5.393    -0.032     17.83
   [N-3]H3         6.443e-08   6.450e-08    -7.191    -7.190     0.000     24.19
   [N-3]H4SO4-     6.205e-09   5.772e-09    -8.207    -8.239    -0.031     36.08

--------------------------Distribution of alkalinity---------------------------

	Total alkalinity (eq/kgw)  =   1.803e-03

	Species          Alkalinity    Molality   Alk/Mol

	HCO3-             1.739e-03   1.739e-03      1.00
	CaHCO3+           1.653e-05   1.653e-05      1.00
	Fe(OH)3           1.283e-05   1.283e-05      1.00
	Al(OH)4-          1.280e-05   3.199e-06      4.00
	CO3-2             7.221e-06   3.611e-06      2.00
	CaCO3             6.773e-06   3.386e-06      2.00
	MgHCO3+           3.002e-06   3.002e-06      1.00
	H3SiO4-           1.024e-06   1.024e-06      1.00
	Fe(OH)4-          8.184e-07   4.092e-07      2.00
	MgCO3             7.229e-07   3.615e-07      2.00
	NaHCO3            7.045e-07   7.045e-07      1.00
	HPO4-2            5.915e-07   5.915e-07      1.00
	MnCO3             3.489e-07   1.744e-07      2.00
	OH-               2.954e-07   2.954e-07      1.00
	CaHPO4            1.800e-07   1.800e-07      1.00
	Al(OH)3           1.263e-07   4.211e-08      3.00
	MnHCO3+           1.252e-07   1.252e-07      1.00
	[N-3]H3           6.443e-08   6.443e-08      1.00
	NaCO3-            6.380e-08   3.190e-08      2.00
	MgHPO4            4.509e-08   4.509e-08      1.00
	CaPO4-            3.316e-08   1.658e-08      2.00
	H+               -2.683e-08   2.683e-08     -1.00
	Al(OH)2+          2.241e-08   1.120e-08      2.00
	MgOH+             1.481e-08   1.481e-08      1.00
	MgPO4-            8.287e-09   4.144e-09      2.00
	CaOH+             5.751e-09   5.751e-09      1.00
	NaHPO4-           7.007e-10   7.007e-10      1.00
	MnOH+             5.904e-10   5.904e-10      1.00
	FeOH+2           -3.795e-10   3.795e-10     -1.00
	HSO4-            -2.620e-10   2.620e-10     -1.00
	HF               -1.096e-10   1.096e-10     -1.00
	AlOH+2            6.897e-11   6.897e-11      1.00
	KHPO4-            6.374e-11   6.374e-11      1.00
	PO4-3             2.778e-11   1.389e-11      2.00
	H2SiO4-2          4.923e-12   2.461e-12      2.00
	CaHSO4+          -2.552e-12   2.552e-12     -1.00
	H3PO4            -6.448e-13   6.448e-13     -1.00
	FeF+2            -1.849e-14   9.247e-15     -2.00
	Fe+3             -5.391e-15   2.696e-15     -2.00
	FeSO4+           -3.484e-15   1.742e-15     -2.00
	FeF2+            -1.782e-15   8.910e-16     -2.00
	HF2-             -1.381e-15   1.381e-15     -1.00
	FeH2PO4+2        -1.971e-16   9.853e-17     -2.00
	FeHPO4+          -1.630e-16   1.630e-16     -1.00
	FeHCO3+           1.328e-16   1.328e-16      1.00
	FeCO3             9.951e-17   4.976e-17      2.00
	FeCl+2           -7.049e-17   3.525e-17     -2.00
	Fe2(OH)2+4       -1.716e-17   8.581e-18     -2.00
	Fe(SO4)2-        -8.294e-18   4.147e-18     -2.00
	FeF3             -8.212e-18   4.106e-18     -2.00
	FeOH+             7.097e-18   7.097e-18      1.00
	Mn(OH)3-          2.594e-18   8.646e-19      3.00
	FeHPO4            1.350e-18   1.350e-18      1.00
	FeCl2+           -2.056e-19   1.028e-19     -2.00
	Fe3(OH)4+5       -3.391e-20   1.695e-20     -2.00
	NaOH              2.063e-20   2.063e-20      1.00
	Fe(OH)2           2.899e-21   1.449e-21      2.00
	FeHSO4+2         -4.397e-22   1.466e-22     -3.00
	AlHSO4+2         -1.706e-22   1.706e-22     -1.00
	FeCl3            -1.320e-23   6.598e-24     -2.00
	Fe(OH)3-          6.577e-24   2.192e-24      3.00
	FeHSO4+          -2.402e-24   2.402e-24     -1.00
	SiF6-2           -1.013e-36   2.533e-37     -4.00

------------------------------Saturation indices-------------------------------

  Phase               SI** log IAP   log K(293 K,   1 atm)

  [N-3]H3(g)       -9.09     -7.19    1.90  [N-3]H3
  Al(OH)3(a)       -1.07     10.06   11.12  Al(OH)3
  Albite           -1.47    -19.79  -18.32  NaAlSi3O8
  Alunite          -3.92     -4.70   -0.78  KAl3(SO4)2(OH)6
  Anhydrite        -2.82     -7.05   -4.22  CaSO4
  Anorthite        -1.71    -21.57  -19.86  CaAl2Si2O8
  Aragonite        -0.35     -8.66   -8.31  CaCO3
  Ca-Montmorillonite   3.53    -42.21  -45.74  Ca0.165Al2.33Si3.67O10(OH)2
  Calcite          -0.20     -8.66   -8.45  CaCO3
  Chalcedony       -0.10     -3.71   -3.61  SiO2
  Chlorite(14A)    -4.38     65.86   70.24  Mg5Al2Si3O10(OH)8
  Chrysotile       -6.12     26.70   32.82  Mg3Si2O5(OH)4
  CO2(g)           -2.61     -4.01   -1.40  CO2
  Dolomite         -1.07    -18.04  -16.97  CaMg(CO3)2
  Fe(OH)3(a)        3.08      7.97    4.89  Fe(OH)3
  Fluorite         -3.43    -14.09  -10.66  CaF2
  Gibbsite          1.67     10.06    8.39  Al(OH)3
  Goethite          8.80      7.97   -0.82  FeOOH
  Gypsum           -2.47     -7.05   -4.58  CaSO4:2H2O
  H2(g)           -42.10    -45.19   -3.09  H2
  H2O(g)           -1.63     -0.00    1.63  H2O
  Halite           -7.85     -6.28    1.57  NaCl
  Hausmannite       7.12     69.38   62.26  Mn3O4
  Hematite         19.58     15.95   -3.63  Fe2O3
  Hydroxyapatite   -1.13     -4.11   -2.98  Ca5(PO4)3OH
  Illite            2.66    -38.28  -40.94  K0.6Mg0.25Al2.3Si3.5O10(OH)2
  Jarosite-K       -2.13    -10.96   -8.83  KFe3(SO4)2(OH)6
  K-feldspar        0.12    -20.83  -20.95  KAlSi3O8
  K-mica            9.04     22.47   13.43  KAl3Si3O10(OH)2
  Kaolinite         4.82     12.69    7.87  Al2Si2O5(OH)4
  Manganite         4.80     30.14   25.34  MnOOH
  Melanterite     -16.81    -19.08   -2.27  FeSO4:7H2O
  Ntg(g)           -0.10     -3.25   -3.14  Ntg	 Pressure   0.8 atm, phi 1.000
  O2(g)            -0.76     -3.61   -2.86  O2
  Oxg(g)           -0.68     -3.54   -2.86  Oxg	 Pressure   0.2 atm, phi 1.000
  Pyrochroite      -6.09      9.11   15.20  Mn(OH)2
  Pyrolusite        8.99     51.17   42.18  MnO2:H2O
  Quartz            0.34     -3.71   -4.05  SiO2
  Rhodochrosite    -0.55    -11.66  -11.11  MnCO3
  Sepiolite        -4.28     11.61   15.89  Mg2Si3O7.5OH:3H2O
  Sepiolite(d)     -7.05     11.61   18.66  Mg2Si3O7.5OH:3H2O
  Siderite         -9.82    -20.68  -10.86  FeCO3
  SiO2(a)          -0.96     -3.71   -2.75  SiO2
  Sylvite          -8.20     -7.33    0.88  KCl
  Talc             -2.69     19.28   21.97  Mg3Si4O10(OH)2
  Vaterite         -0.78     -8.66   -7.87  CaCO3
  Vivianite       -31.64    -67.64  -36.00  Fe3(PO4)2:8H2O

**For a gas, SI = log10(fugacity). Fugacity = pressure * phi / 1 atm.
  For ideal gases, phi = 1.

------------------
End of simulation.
------------------

------------------------------------
Reading input data for simulation 3.
------------------------------------

	TITLE	Calculation pe and pH at field temperature
		Use solution	1
		EQUILIBRIUM_PHASES 1
		Save solution	1
	END
-----
TITLE
-----

	Calculation pe and pH at field temperature

-----------------------------------------
Beginning of batch-reaction calculations.
-----------------------------------------

Reaction step 1.

Using solution 1.	
Using pure phase assemblage 1.	

-----------------------------Solution composition------------------------------

	Elements           Molality       Moles

	Al                3.252e-06   3.252e-06
	C                 1.865e-03   1.865e-03
	Ca                1.110e-03   1.110e-03
	Cl                7.421e-04   7.421e-04
	Doc               8.328e-04   8.328e-04
	F                 3.452e-06   3.452e-06
	Fe                1.658e-05   1.658e-05
	K                 7.368e-05   7.368e-05
	Mg                2.054e-04   2.054e-04
	Mn                1.384e-06   1.384e-06
	N                 9.027e-05   9.027e-05
	Na                8.093e-04   8.093e-04
	Ntg               5.654e-04   5.654e-04
	Oxg               2.900e-04   2.900e-04
	P                 1.041e-06   1.041e-06
	S                 1.666e-04   1.666e-04
	Si                1.942e-04   1.942e-04
	Turb              7.142e-03   7.142e-03
	Uvab              3.268e-02   3.268e-02
	[N+3]             7.141e-12   7.141e-12
	[N-3]             4.428e-06   4.428e-06

----------------------------Description of solution----------------------------

                                       pH  =   7.600      Charge balance
                                       pe  =  13.430      Adjusted to redox equilibrium
      Specific Conductance (µS/cm,  20°C)  = 298
                          Density (g/cm³)  =   0.99843
                               Volume (L)  =   1.00190
                        Activity of water  =   0.999
                 Ionic strength (mol/kgw)  =   4.597e-03
                       Mass of water (kg)  =   1.000e+00
                 Total alkalinity (eq/kg)  =   1.803e-03
                       Total CO2 (mol/kg)  =   1.865e-03
                         Temperature (°C)  =  20.10
                  Electrical balance (eq)  =   5.745e-04
 Percent error, 100*(Cat-|An|)/(Cat+|An|)  =   9.06
                               Iterations  =  29
                                  Total H  = 1.110212e+02
                                  Total O  = 5.551706e+01

----------------------------Distribution of species----------------------------

                                               Log       Log       Log    mole V
   Species          Molality    Activity  Molality  Activity     Gamma   cm³/mol

   OH-             2.954e-07   2.745e-07    -6.530    -6.561    -0.032     -4.29
   H+              2.683e-08   2.512e-08    -7.571    -7.600    -0.029      0.00
   H2O             5.551e+01   9.992e-01     1.744    -0.000     0.000     18.05
Al            3.252e-06
   Al(OH)4-        3.199e-06   2.977e-06    -5.495    -5.526    -0.031     (0)  
   Al(OH)3         4.211e-08   4.216e-08    -7.376    -7.375     0.000     (0)  
   Al(OH)2+        1.120e-08   1.044e-08    -7.951    -7.981    -0.031     (0)  
   AlOH+2          6.897e-11   5.202e-11   -10.161   -10.284    -0.122    -27.47
   AlF2+           9.334e-12   8.699e-12   -11.030   -11.061    -0.031     (0)  
   AlF+2           7.430e-12   5.604e-12   -11.129   -11.251    -0.122     (0)  
   AlF3            3.459e-13   3.463e-13   -12.461   -12.461     0.000     (0)  
   Al+3            3.285e-13   1.817e-13   -12.483   -12.741    -0.257    -41.72
   AlSO4+          6.413e-14   5.969e-14   -13.193   -13.224    -0.031     (0)  
   AlF4-           4.702e-16   4.377e-16   -15.328   -15.359    -0.031     (0)  
   Al(SO4)2-       2.196e-16   2.044e-16   -15.658   -15.690    -0.031     (0)  
   AlHSO4+2        1.706e-22   1.277e-22   -21.768   -21.894    -0.126     (0)  
C(-4)         0.000e+00
   CH4             0.000e+00   0.000e+00  -147.184  -147.183     0.000     32.22
C(4)          1.865e-03
   HCO3-           1.739e-03   1.621e-03    -2.760    -2.790    -0.031     24.33
   CO2             9.790e-05   9.800e-05    -4.009    -4.009     0.000     30.34
   CaHCO3+         1.653e-05   1.542e-05    -4.782    -4.812    -0.030      9.50
   CO3-2           3.611e-06   2.723e-06    -5.442    -5.565    -0.122     -5.59
   CaCO3           3.386e-06   3.390e-06    -5.470    -5.470     0.000    -14.61
   MgHCO3+         3.002e-06   2.792e-06    -5.523    -5.554    -0.031      5.36
   NaHCO3          7.045e-07   7.052e-07    -6.152    -6.152     0.000      1.80
   MgCO3           3.615e-07   3.618e-07    -6.442    -6.441     0.000    -17.08
   MnCO3           1.744e-07   1.746e-07    -6.758    -6.758     0.000     (0)  
   MnHCO3+         1.252e-07   1.166e-07    -6.902    -6.933    -0.031     (0)  
   NaCO3-          3.190e-08   2.967e-08    -7.496    -7.528    -0.031     -1.48
   FeHCO3+         1.328e-16   1.236e-16   -15.877   -15.908    -0.031     (0)  
   FeCO3           4.976e-17   4.981e-17   -16.303   -16.303     0.000     (0)  
Ca            1.110e-03
   Ca+2            1.075e-03   8.103e-04    -2.969    -3.091    -0.123    -18.09
   CaHCO3+         1.653e-05   1.542e-05    -4.782    -4.812    -0.030      9.50
   CaSO4           1.537e-05   1.538e-05    -4.813    -4.813     0.000      7.30
   CaCO3           3.386e-06   3.390e-06    -5.470    -5.470     0.000    -14.61
   CaHPO4          1.800e-07   1.802e-07    -6.745    -6.744     0.000     (0)  
   CaPO4-          1.658e-08   1.545e-08    -7.780    -7.811    -0.031     (0)  
   CaOH+           5.751e-09   5.349e-09    -8.240    -8.272    -0.031     (0)  
   CaH2PO4+        3.743e-09   3.489e-09    -8.427    -8.457    -0.031     (0)  
   CaHSO4+         2.552e-12   2.374e-12   -11.593   -11.624    -0.031     (0)  
Cl            7.421e-04
   Cl-             7.421e-04   6.899e-04    -3.130    -3.161    -0.032     17.94
   MnCl+           2.436e-09   2.269e-09    -8.613    -8.644    -0.031     -4.38
   MnCl2           6.826e-13   6.833e-13   -12.166   -12.165     0.000     92.34
   MnCl3-          1.394e-16   1.298e-16   -15.856   -15.887    -0.031     43.57
   FeCl+2          3.525e-17   2.652e-17   -16.453   -16.576    -0.123     (0)  
   FeCl+           7.806e-19   7.261e-19   -18.108   -18.139    -0.031     (0)  
   FeCl2+          1.028e-19   9.573e-20   -18.988   -19.019    -0.031     (0)  
   FeCl3           6.598e-24   6.605e-24   -23.181   -23.180     0.000     (0)  
Doc           8.328e-04
   Doc             8.328e-04   8.337e-04    -3.079    -3.079     0.000     (0)  
F             3.452e-06
   F-              3.420e-06   3.178e-06    -5.466    -5.498    -0.032     -1.35
   MgF+            3.095e-08   2.880e-08    -7.509    -7.541    -0.031    -10.54
   NaF             1.374e-09   1.376e-09    -8.862    -8.861     0.000      7.06
   HF              1.096e-10   1.097e-10    -9.960    -9.960     0.000     12.26
   MnF+            1.906e-11   1.775e-11   -10.720   -10.751    -0.031     (0)  
   AlF2+           9.334e-12   8.699e-12   -11.030   -11.061    -0.031     (0)  
   AlF+2           7.430e-12   5.604e-12   -11.129   -11.251    -0.122     (0)  
   AlF3            3.459e-13   3.463e-13   -12.461   -12.461     0.000     (0)  
   FeF+2           9.247e-15   6.959e-15   -14.034   -14.157    -0.123     (0)  
   HF2-            1.381e-15   1.284e-15   -14.860   -14.891    -0.031     21.85
   FeF2+           8.910e-16   8.299e-16   -15.050   -15.081    -0.031     (0)  
   AlF4-           4.702e-16   4.377e-16   -15.328   -15.359    -0.031     (0)  
   FeF3            4.106e-18   4.110e-18   -17.387   -17.386     0.000     (0)  
   FeF+            2.605e-20   2.423e-20   -19.584   -19.616    -0.031     (0)  
   SiF6-2          2.533e-37   1.906e-37   -36.596   -36.720    -0.123     42.37
Fe(2)         1.213e-15
   Fe+2            1.007e-15   7.624e-16   -14.997   -15.118    -0.121    -22.35
   FeHCO3+         1.328e-16   1.236e-16   -15.877   -15.908    -0.031     (0)  
   FeCO3           4.976e-17   4.981e-17   -16.303   -16.303     0.000     (0)  
   FeSO4           1.370e-17   1.372e-17   -16.863   -16.863     0.000     24.48
   FeOH+           7.097e-18   6.610e-18   -17.149   -17.180    -0.031     (0)  
   FeHPO4          1.350e-18   1.351e-18   -17.870   -17.869     0.000     (0)  
   FeCl+           7.806e-19   7.261e-19   -18.108   -18.139    -0.031     (0)  
   FeH2PO4+        7.594e-20   7.077e-20   -19.120   -19.150    -0.031     (0)  
   FeF+            2.605e-20   2.423e-20   -19.584   -19.616    -0.031     (0)  
   Fe(OH)2         1.449e-21   1.451e-21   -20.839   -20.838     0.000     (0)  
   FeHSO4+         2.402e-24   2.234e-24   -23.619   -23.651    -0.031     (0)  
   Fe(OH)3-        2.192e-24   2.042e-24   -23.659   -23.690    -0.031     (0)  
   Fe(HS)2         0.000e+00   0.000e+00  -296.980  -296.979     0.000     (0)  
   Fe(HS)3-        0.000e+00   0.000e+00  -440.316  -440.348    -0.031     (0)  
Fe(3)         1.658e-05
   Fe(OH)3         1.283e-05   1.284e-05    -4.892    -4.891     0.000     (0)  
   Fe(OH)2+        3.341e-06   3.114e-06    -5.476    -5.507    -0.031     (0)  
   Fe(OH)4-        4.092e-07   3.814e-07    -6.388    -6.419    -0.031     (0)  
   FeOH+2          3.795e-10   2.856e-10    -9.421    -9.544    -0.123     (0)  
   FeF+2           9.247e-15   6.959e-15   -14.034   -14.157    -0.123     (0)  
   Fe+3            2.696e-15   1.491e-15   -14.569   -14.827    -0.257     (0)  
   FeSO4+          1.742e-15   1.622e-15   -14.759   -14.790    -0.031     (0)  
   FeF2+           8.910e-16   8.299e-16   -15.050   -15.081    -0.031     (0)  
   FeHPO4+         1.630e-16   1.518e-16   -15.788   -15.819    -0.031     (0)  
   FeH2PO4+2       9.853e-17   7.431e-17   -16.006   -16.129    -0.122     (0)  
   FeCl+2          3.525e-17   2.652e-17   -16.453   -16.576    -0.123     (0)  
   Fe2(OH)2+4      8.581e-18   2.697e-18   -17.066   -17.569    -0.503     (0)  
   Fe(SO4)2-       4.147e-18   3.857e-18   -17.382   -17.414    -0.031     (0)  
   FeF3            4.106e-18   4.110e-18   -17.387   -17.386     0.000     (0)  
   FeCl2+          1.028e-19   9.573e-20   -18.988   -19.019    -0.031     (0)  
   Fe3(OH)4+5      1.695e-20   2.778e-21   -19.771   -20.556    -0.786     (0)  
   FeHSO4+2        1.466e-22   1.097e-22   -21.834   -21.960    -0.126     (0)  
   FeCl3           6.598e-24   6.605e-24   -23.181   -23.180     0.000     (0)  
H(0)          0.000e+00
   H2              0.000e+00   0.000e+00   -45.188   -45.188     0.000     28.61
K             7.368e-05
   K+              7.363e-05   6.844e-05    -4.133    -4.165    -0.032      8.87
   KSO4-           5.242e-08   4.885e-08    -7.280    -7.311    -0.031     34.00
   KHPO4-          6.374e-11   5.941e-11   -10.196   -10.226    -0.031     38.52
Mg            2.054e-04
   Mg+2            1.985e-04   1.501e-04    -3.702    -3.824    -0.121    -21.53
   MgSO4           3.426e-06   3.430e-06    -5.465    -5.465     0.000      5.64
   MgHCO3+         3.002e-06   2.792e-06    -5.523    -5.554    -0.031      5.36
   MgCO3           3.615e-07   3.618e-07    -6.442    -6.441     0.000    -17.08
   MgHPO4          4.509e-08   4.514e-08    -7.346    -7.345     0.000     (0)  
   MgF+            3.095e-08   2.880e-08    -7.509    -7.541    -0.031    -10.54
   MgOH+           1.481e-08   1.383e-08    -7.829    -7.859    -0.030     (0)  
   MgPO4-          4.144e-09   3.861e-09    -8.383    -8.413    -0.031     (0)  
   MgH2PO4+        8.832e-10   8.231e-10    -9.054    -9.085    -0.031     (0)  
Mn(2)         1.384e-06
   Mn+2            1.067e-06   8.072e-07    -5.972    -6.093    -0.121    -20.40
   MnCO3           1.744e-07   1.746e-07    -6.758    -6.758     0.000     (0)  
   MnHCO3+         1.252e-07   1.166e-07    -6.902    -6.933    -0.031     (0)  
   MnSO4           1.445e-08   1.446e-08    -7.840    -7.840     0.000     24.87
   MnCl+           2.436e-09   2.269e-09    -8.613    -8.644    -0.031     -4.38
   MnOH+           5.904e-10   5.499e-10    -9.229    -9.260    -0.031     (0)  
   MnF+            1.906e-11   1.775e-11   -10.720   -10.751    -0.031     (0)  
   MnCl2           6.826e-13   6.833e-13   -12.166   -12.165     0.000     92.34
   Mn(NO3)2        2.281e-14   2.283e-14   -13.642   -13.641     0.000     42.42
   MnCl3-          1.394e-16   1.298e-16   -15.856   -15.887    -0.031     43.57
   Mn(OH)3-        8.646e-19   8.053e-19   -18.063   -18.094    -0.031     (0)  
Mn(3)         5.861e-19
   Mn+3            5.861e-19   3.242e-19   -18.232   -18.489    -0.257     (0)  
N(-3)         0.000e+00
   NH4+            0.000e+00   0.000e+00   -66.113   -66.146    -0.032     17.83
   NH3             0.000e+00   0.000e+00   -67.943   -67.943     0.000     24.19
   NH4SO4-         0.000e+00   0.000e+00   -68.960   -68.991    -0.031     36.08
N(0)          3.585e-23
   N2              1.792e-23   1.794e-23   -22.747   -22.746     0.000     29.29
N(3)          1.005e-17
   NO2-            1.005e-17   9.335e-18   -16.998   -17.030    -0.032     24.72
N(5)          9.027e-05
   NO3-            9.027e-05   8.383e-05    -4.044    -4.077    -0.032     29.02
   Mn(NO3)2        2.281e-14   2.283e-14   -13.642   -13.641     0.000     42.42
Na            8.093e-04
   Na+             8.081e-04   7.523e-04    -3.093    -3.124    -0.031     -1.70
   NaHCO3          7.045e-07   7.052e-07    -6.152    -6.152     0.000      1.80
   NaSO4-          4.344e-07   4.048e-07    -6.362    -6.393    -0.031     14.17
   NaCO3-          3.190e-08   2.967e-08    -7.496    -7.528    -0.031     -1.48
   NaF             1.374e-09   1.376e-09    -8.862    -8.861     0.000      7.06
   NaHPO4-         7.007e-10   6.530e-10    -9.154    -9.185    -0.031     33.89
   NaOH            2.063e-20   2.065e-20   -19.686   -19.685     0.000     (0)  
Ntg           5.654e-04
   Ntg             5.654e-04   5.660e-04    -3.248    -3.247     0.000     29.29
O(0)          4.877e-04
   O2              2.438e-04   2.441e-04    -3.613    -3.612     0.000     29.99
Oxg           2.900e-04
   Oxg             2.900e-04   2.903e-04    -3.538    -3.537     0.000     29.99
P             1.041e-06
   HPO4-2          5.915e-07   4.452e-07    -6.228    -6.351    -0.123      6.98
   H2PO4-          1.987e-07   1.852e-07    -6.702    -6.732    -0.031     33.35
   CaHPO4          1.800e-07   1.802e-07    -6.745    -6.744     0.000     (0)  
   MgHPO4          4.509e-08   4.514e-08    -7.346    -7.345     0.000     (0)  
   CaPO4-          1.658e-08   1.545e-08    -7.780    -7.811    -0.031     (0)  
   MgPO4-          4.144e-09   3.861e-09    -8.383    -8.413    -0.031     (0)  
   CaH2PO4+        3.743e-09   3.489e-09    -8.427    -8.457    -0.031     (0)  
   MgH2PO4+        8.832e-10   8.231e-10    -9.054    -9.085    -0.031     (0)  
   NaHPO4-         7.007e-10   6.530e-10    -9.154    -9.185    -0.031     33.89
   KHPO4-          6.374e-11   5.941e-11   -10.196   -10.226    -0.031     38.52
   PO4-3           1.389e-11   7.232e-12   -10.857   -11.141    -0.283    -22.53
   H3PO4           6.448e-13   6.454e-13   -12.191   -12.190     0.000     47.12
   FeHPO4+         1.630e-16   1.518e-16   -15.788   -15.819    -0.031     (0)  
   FeH2PO4+2       9.853e-17   7.431e-17   -16.006   -16.129    -0.122     (0)  
   FeHPO4          1.350e-18   1.351e-18   -17.870   -17.869     0.000     (0)  
   FeH2PO4+        7.594e-20   7.077e-20   -19.120   -19.150    -0.031     (0)  
S(-2)         0.000e+00
   HS-             0.000e+00   0.000e+00  -145.374  -145.406    -0.032     20.39
   H2S             0.000e+00   0.000e+00  -145.998  -145.997     0.000     37.14
   S-2             0.000e+00   0.000e+00  -150.748  -150.872    -0.123     (0)  
   Fe(HS)2         0.000e+00   0.000e+00  -296.980  -296.979     0.000     (0)  
   Fe(HS)3-        0.000e+00   0.000e+00  -440.316  -440.348    -0.031     (0)  
S(6)          1.666e-04
   SO4-2           1.473e-04   1.108e-04    -3.832    -3.955    -0.124     13.94
   CaSO4           1.537e-05   1.538e-05    -4.813    -4.813     0.000      7.30
   MgSO4           3.426e-06   3.430e-06    -5.465    -5.465     0.000      5.64
   NaSO4-          4.344e-07   4.048e-07    -6.362    -6.393    -0.031     14.17
   KSO4-           5.242e-08   4.885e-08    -7.280    -7.311    -0.031     34.00
   MnSO4           1.445e-08   1.446e-08    -7.840    -7.840     0.000     24.87
   [N-3]H4SO4-     6.205e-09   5.772e-09    -8.207    -8.239    -0.031     36.08
   HSO4-           2.620e-10   2.437e-10    -9.582    -9.613    -0.031     39.95
   CaHSO4+         2.552e-12   2.374e-12   -11.593   -11.624    -0.031     (0)  
   AlSO4+          6.413e-14   5.969e-14   -13.193   -13.224    -0.031     (0)  
   FeSO4+          1.742e-15   1.622e-15   -14.759   -14.790    -0.031     (0)  
   Al(SO4)2-       2.196e-16   2.044e-16   -15.658   -15.690    -0.031     (0)  
   FeSO4           1.370e-17   1.372e-17   -16.863   -16.863     0.000     24.48
   Fe(SO4)2-       4.147e-18   3.857e-18   -17.382   -17.414    -0.031     (0)  
   AlHSO4+2        1.706e-22   1.277e-22   -21.768   -21.894    -0.126     (0)  
   FeHSO4+2        1.466e-22   1.097e-22   -21.834   -21.960    -0.126     (0)  
   FeHSO4+         2.402e-24   2.234e-24   -23.619   -23.651    -0.031     (0)  
   NH4SO4-         0.000e+00   0.000e+00   -68.960   -68.991    -0.031     36.08
Si            1.942e-04
   H4SiO4          1.932e-04   1.934e-04    -3.714    -3.714     0.000     52.52
   H3SiO4-         1.024e-06   9.521e-07    -5.990    -6.021    -0.031     27.87
   H2SiO4-2        2.461e-12   1.856e-12   -11.609   -11.731    -0.122     (0)  
   SiF6-2          2.533e-37   1.906e-37   -36.596   -36.720    -0.123     42.37
Turb          7.142e-03
   Turb            7.142e-03   7.150e-03    -2.146    -2.146     0.000     (0)  
Uvab          3.268e-02
   Uvab            3.268e-02   3.271e-02    -1.486    -1.485     0.000     (0)  
[N+3]         7.141e-12
   [N+3]O2-        7.141e-12   6.632e-12   -11.146   -11.178    -0.032     24.72
[N-3]         4.428e-06
   [N-3]H4+        4.357e-06   4.043e-06    -5.361    -5.393    -0.032     17.83
   [N-3]H3         6.443e-08   6.450e-08    -7.191    -7.190     0.000     24.19
   [N-3]H4SO4-     6.205e-09   5.772e-09    -8.207    -8.239    -0.031     36.08

--------------------------Distribution of alkalinity---------------------------

	Total alkalinity (eq/kgw)  =   1.803e-03

	Species          Alkalinity    Molality   Alk/Mol

	HCO3-             1.739e-03   1.739e-03      1.00
	CaHCO3+           1.653e-05   1.653e-05      1.00
	Fe(OH)3           1.283e-05   1.283e-05      1.00
	Al(OH)4-          1.280e-05   3.199e-06      4.00
	CO3-2             7.221e-06   3.611e-06      2.00
	CaCO3             6.773e-06   3.386e-06      2.00
	MgHCO3+           3.002e-06   3.002e-06      1.00
	H3SiO4-           1.024e-06   1.024e-06      1.00
	Fe(OH)4-          8.184e-07   4.092e-07      2.00
	MgCO3             7.229e-07   3.615e-07      2.00
	NaHCO3            7.045e-07   7.045e-07      1.00
	HPO4-2            5.915e-07   5.915e-07      1.00
	MnCO3             3.489e-07   1.744e-07      2.00
	OH-               2.954e-07   2.954e-07      1.00
	CaHPO4            1.800e-07   1.800e-07      1.00
	Al(OH)3           1.263e-07   4.211e-08      3.00
	MnHCO3+           1.252e-07   1.252e-07      1.00
	[N-3]H3           6.443e-08   6.443e-08      1.00
	NaCO3-            6.380e-08   3.190e-08      2.00
	MgHPO4            4.509e-08   4.509e-08      1.00
	CaPO4-            3.316e-08   1.658e-08      2.00
	H+               -2.683e-08   2.683e-08     -1.00
	Al(OH)2+          2.241e-08   1.120e-08      2.00
	MgOH+             1.481e-08   1.481e-08      1.00
	MgPO4-            8.287e-09   4.144e-09      2.00
	CaOH+             5.751e-09   5.751e-09      1.00
	NaHPO4-           7.007e-10   7.007e-10      1.00
	MnOH+             5.904e-10   5.904e-10      1.00
	FeOH+2           -3.795e-10   3.795e-10     -1.00
	HSO4-            -2.620e-10   2.620e-10     -1.00
	HF               -1.096e-10   1.096e-10     -1.00
	AlOH+2            6.897e-11   6.897e-11      1.00
	KHPO4-            6.374e-11   6.374e-11      1.00
	PO4-3             2.778e-11   1.389e-11      2.00
	H2SiO4-2          4.923e-12   2.461e-12      2.00
	CaHSO4+          -2.552e-12   2.552e-12     -1.00
	H3PO4            -6.448e-13   6.448e-13     -1.00
	FeF+2            -1.849e-14   9.247e-15     -2.00
	Fe+3             -5.391e-15   2.696e-15     -2.00
	FeSO4+           -3.484e-15   1.742e-15     -2.00
	FeF2+            -1.782e-15   8.910e-16     -2.00
	HF2-             -1.381e-15   1.381e-15     -1.00
	FeH2PO4+2        -1.971e-16   9.853e-17     -2.00
	FeHPO4+          -1.630e-16   1.630e-16     -1.00
	FeHCO3+           1.328e-16   1.328e-16      1.00
	FeCO3             9.951e-17   4.976e-17      2.00
	FeCl+2           -7.049e-17   3.525e-17     -2.00
	Fe2(OH)2+4       -1.716e-17   8.581e-18     -2.00
	Fe(SO4)2-        -8.294e-18   4.147e-18     -2.00
	FeF3             -8.212e-18   4.106e-18     -2.00
	FeOH+             7.097e-18   7.097e-18      1.00
	Mn(OH)3-          2.594e-18   8.646e-19      3.00
	FeHPO4            1.350e-18   1.350e-18      1.00
	FeCl2+           -2.056e-19   1.028e-19     -2.00
	Fe3(OH)4+5       -3.391e-20   1.695e-20     -2.00
	NaOH              2.063e-20   2.063e-20      1.00
	Fe(OH)2           2.899e-21   1.449e-21      2.00
	FeHSO4+2         -4.397e-22   1.466e-22     -3.00
	AlHSO4+2         -1.706e-22   1.706e-22     -1.00
	FeCl3            -1.320e-23   6.598e-24     -2.00
	Fe(OH)3-          6.577e-24   2.192e-24      3.00
	FeHSO4+          -2.402e-24   2.402e-24     -1.00
	SiF6-2           -1.013e-36   2.533e-37     -4.00
	Fe(HS)3-          0.000e+00   0.000e+00      3.00
	S-2               0.000e+00   0.000e+00      2.00
	HS-               0.000e+00   0.000e+00      1.00
	NH3               0.000e+00   0.000e+00      1.00
	Fe(HS)2           0.000e+00   0.000e+00      2.00

------------------------------Saturation indices-------------------------------

  Phase               SI** log IAP   log K(293 K,   1 atm)

  [N-3]H3(g)       -9.09     -7.19    1.90  [N-3]H3
  Al(OH)3(a)       -1.07     10.06   11.12  Al(OH)3
  Albite           -1.47    -19.79  -18.32  NaAlSi3O8
  Alunite          -3.92     -4.70   -0.78  KAl3(SO4)2(OH)6
  Anhydrite        -2.82     -7.05   -4.22  CaSO4
  Anorthite        -1.71    -21.57  -19.86  CaAl2Si2O8
  Aragonite        -0.35     -8.66   -8.31  CaCO3
  Ca-Montmorillonite   3.53    -42.21  -45.74  Ca0.165Al2.33Si3.67O10(OH)2
  Calcite          -0.20     -8.66   -8.45  CaCO3
  CH4(g)         -144.38   -147.18   -2.80  CH4
  Chalcedony       -0.10     -3.71   -3.61  SiO2
  Chlorite(14A)    -4.38     65.86   70.24  Mg5Al2Si3O10(OH)8
  Chrysotile       -6.12     26.70   32.82  Mg3Si2O5(OH)4
  CO2(g)           -2.61     -4.01   -1.40  CO2
  Dolomite         -1.07    -18.04  -16.97  CaMg(CO3)2
  Fe(OH)3(a)        3.08      7.97    4.89  Fe(OH)3
  FeS(ppt)       -149.01   -152.92   -3.92  FeS
  Fluorite         -3.43    -14.09  -10.66  CaF2
  Gibbsite          1.67     10.06    8.39  Al(OH)3
  Goethite          8.80      7.97   -0.82  FeOOH
  Gypsum           -2.47     -7.05   -4.58  CaSO4:2H2O
  H2(g)           -42.10    -45.19   -3.09  H2
  H2O(g)           -1.63     -0.00    1.63  H2O
  H2S(g)         -145.00   -153.01   -8.00  H2S
  Halite           -7.85     -6.28    1.57  NaCl
  Hausmannite       7.12     69.38   62.26  Mn3O4
  Hematite         19.58     15.95   -3.63  Fe2O3
  Hydroxyapatite   -1.13     -4.11   -2.98  Ca5(PO4)3OH
  Illite            2.66    -38.28  -40.94  K0.6Mg0.25Al2.3Si3.5O10(OH)2
  Jarosite-K       -2.13    -10.96   -8.83  KFe3(SO4)2(OH)6
  K-feldspar        0.12    -20.83  -20.95  KAlSi3O8
  K-mica            9.04     22.47   13.43  KAl3Si3O10(OH)2
  Kaolinite         4.82     12.69    7.87  Al2Si2O5(OH)4
  Mackinawite    -148.28   -152.92   -4.65  FeS
  Manganite         4.80     30.14   25.34  MnOOH
  Melanterite     -16.81    -19.08   -2.27  FeSO4:7H2O
  N2(g)           -19.60    -22.75   -3.14  N2
  NH3(g)          -69.84    -67.94    1.90  NH3
  Ntg(g)           -0.10     -3.25   -3.14  Ntg
  O2(g)            -0.76     -3.61   -2.86  O2
  Oxg(g)           -0.68     -3.54   -2.86  Oxg
  Pyrite         -245.25   -263.87  -18.62  FeS2
  Pyrochroite      -6.09      9.11   15.20  Mn(OH)2
  Pyrolusite        8.99     51.17   42.18  MnO2:H2O
  Quartz            0.34     -3.71   -4.05  SiO2
  Rhodochrosite    -0.55    -11.66  -11.11  MnCO3
  Sepiolite        -4.28     11.61   15.89  Mg2Si3O7.5OH:3H2O
  Sepiolite(d)     -7.05     11.61   18.66  Mg2Si3O7.5OH:3H2O
  Siderite         -9.82    -20.68  -10.86  FeCO3
  SiO2(a)          -0.96     -3.71   -2.75  SiO2
  Sulfur         -108.94   -103.94    5.00  S
  Sylvite          -8.20     -7.33    0.88  KCl
  Talc             -2.69     19.28   21.97  Mg3Si4O10(OH)2
  Vaterite         -0.78     -8.66   -7.87  CaCO3
  Vivianite       -31.64    -67.64  -36.00  Fe3(PO4)2:8H2O

**For a gas, SI = log10(fugacity). Fugacity = pressure * phi / 1 atm.
  For ideal gases, phi = 1.

------------------
End of simulation.
------------------

------------------------------------
Reading input data for simulation 4.
------------------------------------

	TITLE	Calculation CCPP
		Use solution	1
		EQUILIBRIUM_PHASES 2
			Calcite
	END
-----
TITLE
-----

	Calculation CCPP

-----------------------------------------
Beginning of batch-reaction calculations.
-----------------------------------------

Reaction step 1.

Using solution 1.	Solution after simulation 3.
Using pure phase assemblage 2.	

-------------------------------Phase assemblage--------------------------------

                                                      Moles in assemblage
Phase               SI  log IAP  log K(T, P)   Initial       Final       Delta

Calcite           0.00    -8.45     -8.45    1.000e+01   1.000e+01  -3.664e-05

-----------------------------Solution composition------------------------------

	Elements           Molality       Moles

	Al                3.252e-06   3.252e-06
	C                 1.901e-03   1.901e-03
	Ca                1.147e-03   1.147e-03
	Cl                7.421e-04   7.421e-04
	Doc               8.328e-04   8.328e-04
	F                 3.452e-06   3.452e-06
	Fe                1.658e-05   1.658e-05
	K                 7.368e-05   7.368e-05
	Mg                2.054e-04   2.054e-04
	Mn                1.384e-06   1.384e-06
	N                 9.027e-05   9.027e-05
	Na                8.093e-04   8.093e-04
	Ntg               5.654e-04   5.654e-04
	Oxg               2.900e-04   2.900e-04
	P                 1.041e-06   1.041e-06
	S                 1.666e-04   1.666e-04
	Si                1.942e-04   1.942e-04
	Turb              7.142e-03   7.142e-03
	Uvab              3.268e-02   3.268e-02
	[N+3]             7.141e-12   7.141e-12
	[N-3]             4.428e-06   4.428e-06

----------------------------Description of solution----------------------------

                                       pH  =   7.776      Charge balance
                                       pe  =  13.254      Adjusted to redox equilibrium
      Specific Conductance (µS/cm,  20°C)  = 303
                          Density (g/cm³)  =   0.99844
                               Volume (L)  =   1.00190
                        Activity of water  =   0.999
                 Ionic strength (mol/kgw)  =   4.697e-03
                       Mass of water (kg)  =   1.000e+00
                 Total alkalinity (eq/kg)  =   1.877e-03
                       Total CO2 (mol/kg)  =   1.901e-03
                         Temperature (°C)  =  20.10
                  Electrical balance (eq)  =   5.745e-04
 Percent error, 100*(Cat-|An|)/(Cat+|An|)  =   8.88
                               Iterations  =   4
                                  Total H  = 1.110212e+02
                                  Total O  = 5.551717e+01

----------------------------Distribution of species----------------------------

                                               Log       Log       Log    mole V
   Species          Molality    Activity  Molality  Activity     Gamma   cm³/mol

   OH-             4.429e-07   4.113e-07    -6.354    -6.386    -0.032     -4.29
   H+              1.791e-08   1.676e-08    -7.747    -7.776    -0.029      0.00
   H2O             5.551e+01   9.992e-01     1.744    -0.000     0.000     18.05
Al            3.252e-06
   Al(OH)4-        3.219e-06   2.994e-06    -5.492    -5.524    -0.031     (0)  
   Al(OH)3         2.826e-08   2.829e-08    -7.549    -7.548     0.000     (0)  
   Al(OH)2+        5.021e-09   4.676e-09    -8.299    -8.330    -0.031     (0)  
   AlOH+2          2.067e-11   1.555e-11   -10.685   -10.808    -0.124    -27.47
   AlF2+           1.860e-12   1.732e-12   -11.730   -11.761    -0.031     (0)  
   AlF+2           1.485e-12   1.117e-12   -11.828   -11.952    -0.124     (0)  
   AlF3            6.885e-14   6.892e-14   -13.162   -13.162     0.000     (0)  
   Al+3            6.586e-14   3.623e-14   -13.181   -13.441    -0.260    -41.72
   AlSO4+          1.274e-14   1.184e-14   -13.895   -13.926    -0.031     (0)  
   AlF4-           9.359e-17   8.705e-17   -16.029   -16.060    -0.031     (0)  
   Al(SO4)2-       4.339e-17   4.036e-17   -16.363   -16.394    -0.031     (0)  
   AlHSO4+2        2.265e-23   1.691e-23   -22.645   -22.772    -0.127     (0)  
C(-4)         0.000e+00
   CH4             0.000e+00   0.000e+00  -147.345  -147.344     0.000     32.22
C(4)          1.901e-03
   HCO3-           1.800e-03   1.677e-03    -2.745    -2.776    -0.031     24.33
   CO2             6.759e-05   6.767e-05    -4.170    -4.170     0.000     30.34
   CaHCO3+         1.760e-05   1.640e-05    -4.755    -4.785    -0.031      9.50
   CO3-2           5.613e-06   4.222e-06    -5.251    -5.374    -0.124     -5.59
   CaCO3           5.398e-06   5.403e-06    -5.268    -5.267     0.000    -14.61
   MgHCO3+         3.096e-06   2.877e-06    -5.509    -5.541    -0.032      5.36
   NaHCO3          7.283e-07   7.291e-07    -6.138    -6.137     0.000      1.80
   MgCO3           5.581e-07   5.587e-07    -6.253    -6.253     0.000    -17.08
   MnCO3           2.516e-07   2.519e-07    -6.599    -6.599     0.000     (0)  
   MnHCO3+         1.206e-07   1.122e-07    -6.919    -6.950    -0.031     (0)  
   NaCO3-          4.946e-08   4.597e-08    -7.306    -7.337    -0.032     -1.48
   FeHCO3+         6.479e-17   6.022e-17   -16.189   -16.220    -0.032     (0)  
   FeCO3           3.634e-17   3.638e-17   -16.440   -16.439     0.000     (0)  
Ca            1.147e-03
   Ca+2            1.108e-03   8.330e-04    -2.955    -3.079    -0.124    -18.09
   CaHCO3+         1.760e-05   1.640e-05    -4.755    -4.785    -0.031      9.50
   CaSO4           1.572e-05   1.574e-05    -4.804    -4.803     0.000      7.30
   CaCO3           5.398e-06   5.403e-06    -5.268    -5.267     0.000    -14.61
   CaHPO4          1.944e-07   1.946e-07    -6.711    -6.711     0.000     (0)  
   CaPO4-          2.685e-08   2.500e-08    -7.571    -7.602    -0.031     (0)  
   CaOH+           8.865e-09   8.241e-09    -8.052    -8.084    -0.032     (0)  
   CaH2PO4+        2.699e-09   2.514e-09    -8.569    -8.600    -0.031     (0)  
   CaHSO4+         1.744e-12   1.621e-12   -11.759   -11.790    -0.032     (0)  
Cl            7.421e-04
   Cl-             7.421e-04   6.894e-04    -3.130    -3.162    -0.032     17.94
   MnCl+           2.266e-09   2.109e-09    -8.645    -8.676    -0.031     -4.38
   MnCl2           6.341e-13   6.348e-13   -12.198   -12.197     0.000     92.34
   MnCl3-          1.295e-16   1.205e-16   -15.888   -15.919    -0.031     43.57
   FeCl+2          1.110e-17   8.332e-18   -16.955   -17.079    -0.125     (0)  
   FeCl+           3.677e-19   3.418e-19   -18.434   -18.466    -0.032     (0)  
   FeCl2+          3.229e-20   3.005e-20   -19.491   -19.522    -0.031     (0)  
   FeCl3           2.069e-24   2.072e-24   -23.684   -23.684     0.000     (0)  
Doc           8.328e-04
   Doc             8.328e-04   8.337e-04    -3.079    -3.079     0.000     (0)  
F             3.452e-06
   F-              3.420e-06   3.176e-06    -5.466    -5.498    -0.032     -1.35
   MgF+            3.082e-08   2.867e-08    -7.511    -7.543    -0.031    -10.54
   NaF             1.372e-09   1.374e-09    -8.862    -8.862     0.000      7.06
   HF              7.309e-11   7.317e-11   -10.136   -10.136     0.000     12.26
   MnF+            1.773e-11   1.650e-11   -10.751   -10.782    -0.031     (0)  
   AlF2+           1.860e-12   1.732e-12   -11.730   -11.761    -0.031     (0)  
   AlF+2           1.485e-12   1.117e-12   -11.828   -11.952    -0.124     (0)  
   AlF3            6.885e-14   6.892e-14   -13.162   -13.162     0.000     (0)  
   FeF+2           2.913e-15   2.186e-15   -14.536   -14.660    -0.125     (0)  
   HF2-            9.207e-16   8.559e-16   -15.036   -15.068    -0.032     21.85
   FeF2+           2.799e-16   2.605e-16   -15.553   -15.584    -0.031     (0)  
   AlF4-           9.359e-17   8.705e-17   -16.029   -16.060    -0.031     (0)  
   FeF3            1.288e-18   1.289e-18   -17.890   -17.890     0.000     (0)  
   FeF+            1.227e-20   1.141e-20   -19.911   -19.943    -0.032     (0)  
   SiF6-2          5.004e-38   3.755e-38   -37.301   -37.425    -0.125     42.37
Fe(2)         5.895e-16
   Fe+2            4.759e-16   3.592e-16   -15.323   -15.445    -0.122    -22.35
   FeHCO3+         6.479e-17   6.022e-17   -16.189   -16.220    -0.032     (0)  
   FeCO3           3.634e-17   3.638e-17   -16.440   -16.439     0.000     (0)  
   FeSO4           6.423e-18   6.430e-18   -17.192   -17.192     0.000     24.48
   FeOH+           5.013e-18   4.666e-18   -17.300   -17.331    -0.031     (0)  
   FeHPO4          6.679e-19   6.686e-19   -18.175   -18.175     0.000     (0)  
   FeCl+           3.677e-19   3.418e-19   -18.434   -18.466    -0.032     (0)  
   FeH2PO4+        2.509e-20   2.337e-20   -19.600   -19.631    -0.031     (0)  
   FeF+            1.227e-20   1.141e-20   -19.911   -19.943    -0.032     (0)  
   Fe(OH)2         1.533e-21   1.535e-21   -20.814   -20.814     0.000     (0)  
   Fe(OH)3-        3.478e-24   3.237e-24   -23.459   -23.490    -0.031     (0)  
   FeHSO4+         7.518e-25   6.988e-25   -24.124   -24.156    -0.032     (0)  
   Fe(HS)2         0.000e+00   0.000e+00  -297.662  -297.662     0.000     (0)  
   Fe(HS)3-        0.000e+00   0.000e+00  -441.176  -441.208    -0.032     (0)  
Fe(3)         1.658e-05
   Fe(OH)3         1.357e-05   1.358e-05    -4.867    -4.867     0.000     (0)  
   Fe(OH)2+        2.360e-06   2.198e-06    -5.627    -5.658    -0.031     (0)  
   Fe(OH)4-        6.491e-07   6.045e-07    -6.188    -6.219    -0.031     (0)  
   FeOH+2          1.793e-10   1.345e-10    -9.747    -9.871    -0.125     (0)  
   FeF+2           2.913e-15   2.186e-15   -14.536   -14.660    -0.125     (0)  
   Fe+3            8.519e-16   4.687e-16   -15.070   -15.329    -0.260     (0)  
   FeSO4+          5.453e-16   5.075e-16   -15.263   -15.295    -0.031     (0)  
   FeF2+           2.799e-16   2.605e-16   -15.553   -15.584    -0.031     (0)  
   FeHPO4+         5.387e-17   5.014e-17   -16.269   -16.300    -0.031     (0)  
   FeH2PO4+2       2.177e-17   1.638e-17   -16.662   -16.786    -0.124     (0)  
   FeCl+2          1.110e-17   8.332e-18   -16.955   -17.079    -0.125     (0)  
   Fe2(OH)2+4      1.926e-18   5.984e-19   -17.715   -18.223    -0.508     (0)  
   Fe(SO4)2-       1.292e-18   1.201e-18   -17.889   -17.921    -0.032     (0)  
   FeF3            1.288e-18   1.289e-18   -17.890   -17.890     0.000     (0)  
   FeCl2+          3.229e-20   3.005e-20   -19.491   -19.522    -0.031     (0)  
   Fe3(OH)4+5      2.704e-21   4.352e-22   -20.568   -21.361    -0.793     (0)  
   FeHSO4+2        3.068e-23   2.291e-23   -22.513   -22.640    -0.127     (0)  
   FeCl3           2.069e-24   2.072e-24   -23.684   -23.684     0.000     (0)  
H(0)          0.000e+00
   H2              0.000e+00   0.000e+00   -45.188   -45.188     0.000     28.61
K             7.368e-05
   K+              7.363e-05   6.839e-05    -4.133    -4.165    -0.032      8.87
   KSO4-           5.216e-08   4.858e-08    -7.283    -7.314    -0.031     34.00
   KHPO4-          6.695e-11   6.235e-11   -10.174   -10.205    -0.031     38.52
Mg            2.054e-04
   Mg+2            1.982e-04   1.495e-04    -3.703    -3.825    -0.122    -21.53
   MgSO4           3.396e-06   3.399e-06    -5.469    -5.469     0.000      5.64
   MgHCO3+         3.096e-06   2.877e-06    -5.509    -5.541    -0.032      5.36
   MgCO3           5.581e-07   5.587e-07    -6.253    -6.253     0.000    -17.08
   MgHPO4          4.717e-08   4.722e-08    -7.326    -7.326     0.000     (0)  
   MgF+            3.082e-08   2.867e-08    -7.511    -7.543    -0.031    -10.54
   MgOH+           2.212e-08   2.064e-08    -7.655    -7.685    -0.030     (0)  
   MgPO4-          6.500e-09   6.053e-09    -8.187    -8.218    -0.031     (0)  
   MgH2PO4+        6.170e-10   5.746e-10    -9.210    -9.241    -0.031     (0)  
Mn(2)         1.384e-06
   Mn+2            9.951e-07   7.510e-07    -6.002    -6.124    -0.122    -20.39
   MnCO3           2.516e-07   2.519e-07    -6.599    -6.599     0.000     (0)  
   MnHCO3+         1.206e-07   1.122e-07    -6.919    -6.950    -0.031     (0)  
   MnSO4           1.338e-08   1.339e-08    -7.874    -7.873     0.000     24.87
   MnCl+           2.266e-09   2.109e-09    -8.645    -8.676    -0.031     -4.38
   MnOH+           8.237e-10   7.667e-10    -9.084    -9.115    -0.031     (0)  
   MnF+            1.773e-11   1.650e-11   -10.751   -10.782    -0.031     (0)  
   MnCl2           6.341e-13   6.348e-13   -12.198   -12.197     0.000     92.34
   Mn(NO3)2        2.119e-14   2.121e-14   -13.674   -13.673     0.000     42.42
   MnCl3-          1.295e-16   1.205e-16   -15.888   -15.919    -0.031     43.57
   Mn(OH)3-        2.709e-18   2.521e-18   -17.567   -17.598    -0.031     (0)  
Mn(3)         3.659e-19
   Mn+3            3.659e-19   2.013e-19   -18.437   -18.696    -0.260     (0)  
N(-3)         0.000e+00
   NH4+            0.000e+00   0.000e+00   -66.465   -66.497    -0.033     17.83
   NH3             0.000e+00   0.000e+00   -68.119   -68.119     0.000     24.19
   NH4SO4-         0.000e+00   0.000e+00   -69.313   -69.345    -0.032     36.08
N(0)          1.594e-23
   N2              7.970e-24   7.978e-24   -23.099   -23.098     0.000     29.29
N(3)          1.005e-17
   NO2-            1.005e-17   9.328e-18   -16.998   -17.030    -0.032     24.72
N(5)          9.027e-05
   NO3-            9.027e-05   8.376e-05    -4.044    -4.077    -0.032     29.02
   Mn(NO3)2        2.119e-14   2.121e-14   -13.674   -13.673     0.000     42.42
Na            8.093e-04
   Na+             8.081e-04   7.518e-04    -3.093    -3.124    -0.031     -1.70
   NaHCO3          7.283e-07   7.291e-07    -6.138    -6.137     0.000      1.80
   NaSO4-          4.323e-07   4.025e-07    -6.364    -6.395    -0.031     14.17
   NaCO3-          4.946e-08   4.597e-08    -7.306    -7.337    -0.032     -1.48
   NaF             1.372e-09   1.374e-09    -8.862    -8.862     0.000      7.06
   NaHPO4-         7.360e-10   6.854e-10    -9.133    -9.164    -0.031     33.89
   NaOH            3.089e-20   3.092e-20   -19.510   -19.510     0.000     (0)  
Ntg           5.654e-04
   Ntg             5.654e-04   5.660e-04    -3.248    -3.247     0.000     29.29
O(0)          4.877e-04
   O2              2.438e-04   2.441e-04    -3.613    -3.612     0.000     29.99
Oxg           2.900e-04
   Oxg             2.900e-04   2.903e-04    -3.538    -3.537     0.000     29.99
P             1.041e-06
   HPO4-2          6.231e-07   4.676e-07    -6.205    -6.330    -0.125      6.98
   CaHPO4          1.944e-07   1.946e-07    -6.711    -6.711     0.000     (0)  
   H2PO4-          1.394e-07   1.298e-07    -6.856    -6.887    -0.031     33.35
   MgHPO4          4.717e-08   4.722e-08    -7.326    -7.326     0.000     (0)  
   CaPO4-          2.685e-08   2.500e-08    -7.571    -7.602    -0.031     (0)  
   MgPO4-          6.500e-09   6.053e-09    -8.187    -8.218    -0.031     (0)  
   CaH2PO4+        2.699e-09   2.514e-09    -8.569    -8.600    -0.031     (0)  
   NaHPO4-         7.360e-10   6.854e-10    -9.133    -9.164    -0.031     33.89
   MgH2PO4+        6.170e-10   5.746e-10    -9.210    -9.241    -0.031     (0)  
   KHPO4-          6.695e-11   6.235e-11   -10.174   -10.205    -0.031     38.52
   PO4-3           2.201e-11   1.138e-11   -10.657   -10.944    -0.286    -22.52
   H3PO4           3.016e-13   3.019e-13   -12.521   -12.520     0.000     47.12
   FeHPO4+         5.387e-17   5.014e-17   -16.269   -16.300    -0.031     (0)  
   FeH2PO4+2       2.177e-17   1.638e-17   -16.662   -16.786    -0.124     (0)  
   FeHPO4          6.679e-19   6.686e-19   -18.175   -18.175     0.000     (0)  
   FeH2PO4+        2.509e-20   2.337e-20   -19.600   -19.631    -0.031     (0)  
S(-2)         0.000e+00
   HS-             0.000e+00   0.000e+00  -145.551  -145.583    -0.032     20.39
   H2S             0.000e+00   0.000e+00  -146.351  -146.351     0.000     37.14
   S-2             0.000e+00   0.000e+00  -150.749  -150.874    -0.125     (0)  
   Fe(HS)2         0.000e+00   0.000e+00  -297.662  -297.662     0.000     (0)  
   Fe(HS)3-        0.000e+00   0.000e+00  -441.176  -441.208    -0.032     (0)  
S(6)          1.666e-04
   SO4-2           1.470e-04   1.103e-04    -3.833    -3.958    -0.125     13.95
   CaSO4           1.572e-05   1.574e-05    -4.804    -4.803     0.000      7.30
   MgSO4           3.396e-06   3.399e-06    -5.469    -5.469     0.000      5.64
   NaSO4-          4.323e-07   4.025e-07    -6.364    -6.395    -0.031     14.17
   KSO4-           5.216e-08   4.858e-08    -7.283    -7.314    -0.031     34.00
   MnSO4           1.338e-08   1.339e-08    -7.874    -7.873     0.000     24.87
   [N-3]H4SO4-     6.129e-09   5.698e-09    -8.213    -8.244    -0.032     36.08
   HSO4-           1.741e-10   1.618e-10    -9.759    -9.791    -0.032     39.95
   CaHSO4+         1.744e-12   1.621e-12   -11.759   -11.790    -0.032     (0)  
   AlSO4+          1.274e-14   1.184e-14   -13.895   -13.926    -0.031     (0)  
   FeSO4+          5.453e-16   5.075e-16   -15.263   -15.295    -0.031     (0)  
   Al(SO4)2-       4.339e-17   4.036e-17   -16.363   -16.394    -0.031     (0)  
   FeSO4           6.423e-18   6.430e-18   -17.192   -17.192     0.000     24.48
   Fe(SO4)2-       1.292e-18   1.201e-18   -17.889   -17.921    -0.032     (0)  
   FeHSO4+2        3.068e-23   2.291e-23   -22.513   -22.640    -0.127     (0)  
   AlHSO4+2        2.265e-23   1.691e-23   -22.645   -22.772    -0.127     (0)  
   FeHSO4+         7.518e-25   6.988e-25   -24.124   -24.156    -0.032     (0)  
   NH4SO4-         0.000e+00   0.000e+00   -69.313   -69.345    -0.032     36.08
Si            1.942e-04
   H4SiO4          1.927e-04   1.929e-04    -3.715    -3.715     0.000     52.52
   H3SiO4-         1.531e-06   1.423e-06    -5.815    -5.847    -0.032     27.87
   H2SiO4-2        5.528e-12   4.158e-12   -11.257   -11.381    -0.124     (0)  
   SiF6-2          5.004e-38   3.755e-38   -37.301   -37.425    -0.125     42.37
Turb          7.142e-03
   Turb            7.142e-03   7.150e-03    -2.146    -2.146     0.000     (0)  
Uvab          3.268e-02
   Uvab            3.268e-02   3.271e-02    -1.486    -1.485     0.000     (0)  
[N+3]         7.141e-12
   [N+3]O2-        7.141e-12   6.627e-12   -11.146   -11.179    -0.032     24.72
[N-3]         4.428e-06
   [N-3]H4+        4.326e-06   4.011e-06    -5.364    -5.397    -0.033     17.83
   [N-3]H3         9.578e-08   9.588e-08    -7.019    -7.018     0.000     24.19
   [N-3]H4SO4-     6.129e-09   5.698e-09    -8.213    -8.244    -0.032     36.08

--------------------------Distribution of alkalinity---------------------------

	Total alkalinity (eq/kgw)  =   1.877e-03

	Species          Alkalinity    Molality   Alk/Mol

	HCO3-             1.800e-03   1.800e-03      1.00
	CaHCO3+           1.760e-05   1.760e-05      1.00
	Fe(OH)3           1.357e-05   1.357e-05      1.00
	Al(OH)4-          1.288e-05   3.219e-06      4.00
	CO3-2             1.123e-05   5.613e-06      2.00
	CaCO3             1.080e-05   5.398e-06      2.00
	MgHCO3+           3.096e-06   3.096e-06      1.00
	H3SiO4-           1.531e-06   1.531e-06      1.00
	Fe(OH)4-          1.298e-06   6.491e-07      2.00
	MgCO3             1.116e-06   5.581e-07      2.00
	NaHCO3            7.283e-07   7.283e-07      1.00
	HPO4-2            6.231e-07   6.231e-07      1.00
	MnCO3             5.032e-07   2.516e-07      2.00
	OH-               4.429e-07   4.429e-07      1.00
	CaHPO4            1.944e-07   1.944e-07      1.00
	MnHCO3+           1.206e-07   1.206e-07      1.00
	NaCO3-            9.892e-08   4.946e-08      2.00
	[N-3]H3           9.578e-08   9.578e-08      1.00
	Al(OH)3           8.478e-08   2.826e-08      3.00
	CaPO4-            5.369e-08   2.685e-08      2.00
	MgHPO4            4.717e-08   4.717e-08      1.00
	MgOH+             2.212e-08   2.212e-08      1.00
	H+               -1.791e-08   1.791e-08     -1.00
	MgPO4-            1.300e-08   6.500e-09      2.00
	Al(OH)2+          1.004e-08   5.021e-09      2.00
	CaOH+             8.865e-09   8.865e-09      1.00
	MnOH+             8.237e-10   8.237e-10      1.00
	NaHPO4-           7.360e-10   7.360e-10      1.00
	FeOH+2           -1.793e-10   1.793e-10     -1.00
	HSO4-            -1.741e-10   1.741e-10     -1.00
	HF               -7.309e-11   7.309e-11     -1.00
	KHPO4-            6.695e-11   6.695e-11      1.00
	PO4-3             4.402e-11   2.201e-11      2.00
	AlOH+2            2.067e-11   2.067e-11      1.00
	H2SiO4-2          1.106e-11   5.528e-12      2.00
	CaHSO4+          -1.744e-12   1.744e-12     -1.00
	H3PO4            -3.016e-13   3.016e-13     -1.00
	FeF+2            -5.826e-15   2.913e-15     -2.00
	Fe+3             -1.704e-15   8.519e-16     -2.00
	FeSO4+           -1.091e-15   5.453e-16     -2.00
	HF2-             -9.207e-16   9.207e-16     -1.00
	FeF2+            -5.598e-16   2.799e-16     -2.00
	FeCO3             7.268e-17   3.634e-17      2.00
	FeHCO3+           6.479e-17   6.479e-17      1.00
	FeHPO4+          -5.387e-17   5.387e-17     -1.00
	FeH2PO4+2        -4.354e-17   2.177e-17     -2.00
	FeCl+2           -2.221e-17   1.110e-17     -2.00
	Mn(OH)3-          8.126e-18   2.709e-18      3.00
	FeOH+             5.013e-18   5.013e-18      1.00
	Fe2(OH)2+4       -3.852e-18   1.926e-18     -2.00
	Fe(SO4)2-        -2.583e-18   1.292e-18     -2.00
	FeF3             -2.576e-18   1.288e-18     -2.00
	FeHPO4            6.679e-19   6.679e-19      1.00
	FeCl2+           -6.457e-20   3.229e-20     -2.00
	NaOH              3.089e-20   3.089e-20      1.00
	Fe3(OH)4+5       -5.407e-21   2.704e-21     -2.00
	Fe(OH)2           3.066e-21   1.533e-21      2.00
	FeHSO4+2         -9.204e-23   3.068e-23     -3.00
	AlHSO4+2         -2.265e-23   2.265e-23     -1.00
	Fe(OH)3-          1.043e-23   3.478e-24      3.00
	FeCl3            -4.139e-24   2.069e-24     -2.00
	FeHSO4+          -7.518e-25   7.518e-25     -1.00
	SiF6-2           -2.002e-37   5.004e-38     -4.00
	Fe(HS)3-          0.000e+00   0.000e+00      3.00
	S-2               0.000e+00   0.000e+00      2.00
	Fe(HS)2           0.000e+00   0.000e+00      2.00
	HS-               0.000e+00   0.000e+00      1.00
	NH3               0.000e+00   0.000e+00      1.00

------------------------------Saturation indices-------------------------------

  Phase               SI** log IAP   log K(293 K,   1 atm)

  [N-3]H3(g)       -8.92     -7.02    1.90  [N-3]H3
  Al(OH)3(a)       -1.24      9.89   11.12  Al(OH)3
  Albite           -1.47    -19.79  -18.32  NaAlSi3O8
  Alunite          -4.97     -5.75   -0.78  KAl3(SO4)2(OH)6
  Anhydrite        -2.81     -7.04   -4.22  CaSO4
  Anorthite        -1.70    -21.55  -19.86  CaAl2Si2O8
  Aragonite        -0.15     -8.45   -8.31  CaCO3
  Ca-Montmorillonite   3.18    -42.56  -45.74  Ca0.165Al2.33Si3.67O10(OH)2
  Calcite           0.00     -8.45   -8.45  CaCO3
  CH4(g)         -144.54   -147.34   -2.80  CH4
  Chalcedony       -0.10     -3.71   -3.61  SiO2
  Chlorite(14A)    -2.98     67.26   70.24  Mg5Al2Si3O10(OH)8
  Chrysotile       -5.07     27.75   32.82  Mg3Si2O5(OH)4
  CO2(g)           -2.77     -4.17   -1.40  CO2
  Dolomite         -0.68    -17.65  -16.97  CaMg(CO3)2
  Fe(OH)3(a)        3.11      8.00    4.89  Fe(OH)3
  FeS(ppt)       -149.34   -153.25   -3.92  FeS
  Fluorite         -3.42    -14.08  -10.66  CaF2
  Gibbsite          1.50      9.89    8.39  Al(OH)3
  Goethite          8.82      8.00   -0.82  FeOOH
  Gypsum           -2.46     -7.04   -4.58  CaSO4:2H2O
  H2(g)           -42.10    -45.19   -3.09  H2
  H2O(g)           -1.63     -0.00    1.63  H2O
  H2S(g)         -145.35   -153.36   -8.00  H2S
  Halite           -7.85     -6.29    1.57  NaCl
  Hausmannite       8.08     70.34   62.26  Mn3O4
  Hematite         19.62     15.99   -3.63  Fe2O3
  Hydroxyapatite   -0.31     -3.28   -2.98  Ca5(PO4)3OH
  Illite            2.45    -38.49  -40.94  K0.6Mg0.25Al2.3Si3.5O10(OH)2
  Jarosite-K       -2.59    -11.42   -8.83  KFe3(SO4)2(OH)6
  K-feldspar        0.12    -20.83  -20.95  KAlSi3O8
  K-mica            8.69     22.12   13.43  KAl3Si3O10(OH)2
  Kaolinite         4.48     12.34    7.87  Al2Si2O5(OH)4
  Mackinawite    -148.60   -153.25   -4.65  FeS
  Manganite         5.12     30.46   25.34  MnOOH
  Melanterite     -17.13    -19.40   -2.27  FeSO4:7H2O
  N2(g)           -19.95    -23.10   -3.14  N2
  NH3(g)          -70.02    -68.12    1.90  NH3
  Ntg(g)           -0.10     -3.25   -3.14  Ntg
  O2(g)            -0.76     -3.61   -2.86  O2
  Oxg(g)           -0.68     -3.54   -2.86  Oxg
  Pyrite         -245.93   -264.55  -18.62  FeS2
  Pyrochroite      -5.77      9.43   15.20  Mn(OH)2
  Pyrolusite        9.31     51.49   42.18  MnO2:H2O
  Quartz            0.34     -3.71   -4.05  SiO2
  Rhodochrosite    -0.39    -11.50  -11.11  MnCO3
  Sepiolite        -3.58     12.31   15.89  Mg2Si3O7.5OH:3H2O
  Sepiolite(d)     -6.35     12.31   18.66  Mg2Si3O7.5OH:3H2O
  Siderite         -9.96    -20.82  -10.86  FeCO3
  SiO2(a)          -0.96     -3.71   -2.75  SiO2
  Sulfur         -109.29   -104.29    5.00  S
  Sylvite          -8.20     -7.33    0.88  KCl
  Talc             -1.65     20.32   21.97  Mg3Si4O10(OH)2
  Vaterite         -0.58     -8.45   -7.87  CaCO3
  Vivianite       -32.22    -68.22  -36.00  Fe3(PO4)2:8H2O

**For a gas, SI = log10(fugacity). Fugacity = pressure * phi / 1 atm.
  For ideal gases, phi = 1.

------------------
End of simulation.
------------------

------------------------------------
Reading input data for simulation 5.
------------------------------------

	TITLE	Dosing HCl
		Use solution	1
		REACTION 1
		HCl	1.0
		0.320684 mmoles
		Save solution	2
	END
-----
TITLE
-----

	Dosing HCl

-----------------------------------------
Beginning of batch-reaction calculations.
-----------------------------------------

Reaction step 1.

Using solution 1.	Solution after simulation 3.
Using reaction 1.	

Reaction 1.	

	  3.207e-04 moles of the following reaction have been added:

	                 Relative
	Reactant            moles

	HCl                  1.00000

	                 Relative
	Element             moles
	Cl                   1.00000
	H                    1.00000

-----------------------------Solution composition------------------------------

	Elements           Molality       Moles

	Al                3.252e-06   3.252e-06
	C                 1.865e-03   1.865e-03
	Ca                1.110e-03   1.110e-03
	Cl                1.063e-03   1.063e-03
	Doc               8.328e-04   8.328e-04
	F                 3.452e-06   3.452e-06
	Fe                1.658e-05   1.658e-05
	K                 7.368e-05   7.368e-05
	Mg                2.054e-04   2.054e-04
	Mn                1.384e-06   1.384e-06
	N                 9.027e-05   9.027e-05
	Na                8.093e-04   8.093e-04
	Ntg               5.654e-04   5.654e-04
	Oxg               2.900e-04   2.900e-04
	P                 1.041e-06   1.041e-06
	S                 1.666e-04   1.666e-04
	Si                1.942e-04   1.942e-04
	Turb              7.142e-03   7.142e-03
	Uvab              3.268e-02   3.268e-02
	[N+3]             7.141e-12   7.141e-12
	[N-3]             4.428e-06   4.428e-06

----------------------------Description of solution----------------------------

                                       pH  =   6.904      Charge balance
                                       pe  =  14.126      Adjusted to redox equilibrium
      Specific Conductance (µS/cm,  20°C)  = 308
                          Density (g/cm³)  =   0.99843
                               Volume (L)  =   1.00192
                        Activity of water  =   0.999
                 Ionic strength (mol/kgw)  =   4.616e-03
                       Mass of water (kg)  =   1.000e+00
                 Total alkalinity (eq/kg)  =   1.483e-03
                       Total CO2 (mol/kg)  =   1.865e-03
                         Temperature (°C)  =  20.10
                  Electrical balance (eq)  =   5.745e-04
 Percent error, 100*(Cat-|An|)/(Cat+|An|)  =   9.01
                               Iterations  =   5
                                  Total H  = 1.110215e+02
                                  Total O  = 5.551706e+01

----------------------------Distribution of species----------------------------

                                               Log       Log       Log    mole V
   Species          Molality    Activity  Molality  Activity     Gamma   cm³/mol

[...]
   CaHPO4          8.218e-09   8.227e-09    -8.085    -8.085     0.000     (0)  
   CaOH+           4.077e-09   3.785e-09    -8.390    -8.422    -0.032     (0)  
   CaPO4-          5.389e-10   5.012e-10    -9.268    -9.300    -0.031     (0)  
   CaH2PO4+        2.410e-10   2.242e-10    -9.618    -9.649    -0.031     (0)  
   CaHSO4+         4.502e-12   4.179e-12   -11.347   -11.379    -0.032     (0)  
Cl            1.469e-03
   Cl-             1.469e-03   1.363e-03    -2.833    -2.866    -0.033     17.95
   MnCl+           3.337e-11   3.102e-11   -10.477   -10.508    -0.032     -4.38
   MnCl2           1.843e-14   1.845e-14   -13.735   -13.734     0.000     92.34
   FeCl+2          5.269e-17   3.934e-17   -16.278   -16.405    -0.127     (0)  
   MnCl3-          7.449e-18   6.925e-18   -17.128   -17.160    -0.032     43.57
   FeCl+           7.943e-19   7.374e-19   -18.100   -18.132    -0.032     (0)  
   FeCl2+          3.017e-19   2.804e-19   -18.520   -18.552    -0.032     (0)  
   FeCl3           3.817e-23   3.821e-23   -22.418   -22.418     0.000     (0)  
Doc           3.983e-04
   Doc             3.983e-04   3.987e-04    -3.400    -3.399     0.000     (0)  
F             3.452e-06
   F-              3.420e-06   3.171e-06    -5.466    -5.499    -0.033     -1.35
   MgF+            3.076e-08   2.857e-08    -7.512    -7.544    -0.032    -10.54
   NaF             1.808e-09   1.810e-09    -8.743    -8.742     0.000      7.06
   HF              1.539e-10   1.541e-10    -9.813    -9.812     0.000     12.26
   AlF2+           1.738e-12   1.617e-12   -11.760   -11.791    -0.031     (0)  
   AlF+2           1.395e-12   1.044e-12   -11.855   -11.981    -0.126     (0)  
   MnF+            1.319e-13   1.226e-13   -12.880   -12.912    -0.032     (0)  
   AlF3            6.415e-14   6.422e-14   -13.193   -13.192     0.000     (0)  
   FeF+2           6.984e-15   5.214e-15   -14.156   -14.283    -0.127     (0)  
   HF2-            1.939e-15   1.800e-15   -14.713   -14.745    -0.032     21.85
   FeF2+           6.675e-16   6.204e-16   -15.176   -15.207    -0.032     (0)  
   AlF4-           8.719e-17   8.099e-17   -16.060   -16.092    -0.032     (0)  
   FeF3            3.063e-18   3.066e-18   -17.514   -17.513     0.000     (0)  
   FeF+            1.339e-20   1.243e-20   -19.873   -19.905    -0.032     (0)  
   SiF6-2          9.884e-37   7.379e-37   -36.005   -36.132    -0.127     42.37
Fe(2)         5.934e-16
   Fe+2            5.220e-16   3.920e-16   -15.282   -15.407    -0.124    -22.34
   FeHCO3+         4.673e-17   4.338e-17   -16.330   -16.363    -0.032     (0)  
   FeCO3           1.241e-17   1.242e-17   -16.906   -16.906     0.000     (0)  
   FeSO4           8.852e-18   8.862e-18   -17.053   -17.052     0.000     24.48
   FeOH+           2.599e-18   2.416e-18   -17.585   -17.617    -0.032     (0)  
   FeCl+           7.943e-19   7.374e-19   -18.100   -18.132    -0.032     (0)  
   FeHPO4          3.183e-20   3.187e-20   -19.497   -19.497     0.000     (0)  
   FeF+            1.339e-20   1.243e-20   -19.873   -19.905    -0.032     (0)  
   FeH2PO4+        2.526e-21   2.349e-21   -20.598   -20.629    -0.031     (0)  
   Fe(OH)2         3.766e-22   3.770e-22   -21.424   -21.424     0.000     (0)  
   FeHSO4+         2.188e-24   2.031e-24   -23.660   -23.692    -0.032     (0)  
   Fe(OH)3-        4.057e-25   3.772e-25   -24.392   -24.423    -0.032     (0)  
   Fe(HS)2         0.000e+00   0.000e+00  -297.032  -297.032     0.000     (0)  
   Fe(HS)3-        0.000e+00   0.000e+00  -440.250  -440.282    -0.032     (0)  
Fe(3)         4.809e-06
   Fe(OH)3         3.460e-06   3.464e-06    -5.461    -5.460     0.000     (0)  
   Fe(OH)2+        1.270e-06   1.182e-06    -5.896    -5.928    -0.031     (0)  
   Fe(OH)4-        7.863e-08   7.313e-08    -7.104    -7.136    -0.031     (0)  
   FeOH+2          2.042e-10   1.524e-10    -9.690    -9.817    -0.127     (0)  
   FeF+2           6.984e-15   5.214e-15   -14.156   -14.283    -0.127     (0)  
   Fe+3            2.055e-15   1.119e-15   -14.687   -14.951    -0.264     (0)  
   FeSO4+          1.647e-15   1.531e-15   -14.783   -14.815    -0.032     (0)  
   FeF2+           6.675e-16   6.204e-16   -15.176   -15.207    -0.032     (0)  
   FeCl+2          5.269e-17   3.934e-17   -16.278   -16.405    -0.127     (0)  
   FeHPO4+         5.627e-18   5.230e-18   -17.250   -17.281    -0.032     (0)  
   Fe(SO4)2-       4.927e-18   4.573e-18   -17.307   -17.340    -0.032     (0)  
   FeH2PO4+2       4.814e-18   3.603e-18   -17.318   -17.443    -0.126     (0)  
   FeF3            3.063e-18   3.066e-18   -17.514   -17.513     0.000     (0)  
   Fe2(OH)2+4      2.527e-18   7.683e-19   -17.597   -18.114    -0.517     (0)  
   FeCl2+          3.017e-19   2.804e-19   -18.520   -18.552    -0.032     (0)  
   Fe3(OH)4+5      1.930e-21   3.004e-22   -20.715   -21.522    -0.808     (0)  
   FeHSO4+2        1.962e-22   1.457e-22   -21.707   -21.837    -0.129     (0)  
   FeCl3           3.817e-23   3.821e-23   -22.418   -22.418     0.000     (0)  
H(0)          0.000e+00
   H2              0.000e+00   0.000e+00   -45.221   -45.220     0.000     28.61
K             7.368e-05
   K+              7.362e-05   6.828e-05    -4.133    -4.166    -0.033      8.87
   KSO4-           6.585e-08   6.125e-08    -7.181    -7.213    -0.031     34.00
   KHPO4-          2.923e-12   2.719e-12   -11.534   -11.566    -0.031     38.52
Mg            2.054e-04
   Mg+2            1.988e-04   1.492e-04    -3.701    -3.826    -0.125    -21.52
   MgSO4           4.280e-06   4.285e-06    -5.369    -5.368     0.000      5.64
   MgHCO3+         2.042e-06   1.895e-06    -5.690    -5.722    -0.032      5.36
   MgCO3           1.743e-07   1.745e-07    -6.759    -6.758     0.000    -17.08
   MgF+            3.076e-08   2.857e-08    -7.512    -7.544    -0.032    -10.54
   MgOH+           1.049e-08   9.771e-09    -7.979    -8.010    -0.031     (0)  
   MgHPO4          2.056e-09   2.058e-09    -8.687    -8.686     0.000     (0)  
   MgPO4-          1.345e-10   1.251e-10    -9.871    -9.903    -0.031     (0)  
   MgH2PO4+        5.679e-11   5.282e-11   -10.246   -10.277    -0.031     (0)  
Mn(2)         8.780e-09
   Mn+2            7.439e-09   5.587e-09    -8.128    -8.253    -0.124    -20.37
   MnHCO3+         5.928e-10   5.510e-10    -9.227    -9.259    -0.032     (0)  
   MnCO3           5.857e-10   5.864e-10    -9.232    -9.232     0.000     (0)  
   MnSO4           1.257e-10   1.258e-10    -9.901    -9.900     0.000     24.87
   MnCl+           3.337e-11   3.102e-11   -10.477   -10.508    -0.032     -4.38
   MnOH+           2.911e-12   2.706e-12   -11.536   -11.568    -0.032     (0)  
   MnF+            1.319e-13   1.226e-13   -12.880   -12.912    -0.032     (0)  
   MnCl2           1.843e-14   1.845e-14   -13.735   -13.734     0.000     92.34
   Mn(NO3)2        1.727e-16   1.729e-16   -15.763   -15.762     0.000     42.42
   MnCl3-          7.449e-18   6.925e-18   -17.128   -17.160    -0.032     43.57
   Mn(OH)3-        2.154e-21   2.002e-21   -20.667   -20.698    -0.032     (0)  
Mn(3)         6.017e-21
   Mn+3            6.017e-21   3.277e-21   -20.221   -20.485    -0.264     (0)  
N(-3)         0.000e+00
   NH4+            0.000e+00   0.000e+00   -65.925   -65.959    -0.033     17.83
   NH3             0.000e+00   0.000e+00   -67.905   -67.904     0.000     24.19
   NH4SO4-         0.000e+00   0.000e+00   -68.673   -68.705    -0.032     36.08
N(0)          5.347e-23
   N2              2.673e-23   2.676e-23   -22.573   -22.572     0.000     29.29
N(3)          9.779e-18
   NO2-            9.779e-18   9.061e-18   -17.010   -17.043    -0.033     24.73
N(5)          9.461e-05
   NO3-            9.461e-05   8.767e-05    -4.024    -4.057    -0.033     29.02
   Mn(NO3)2        1.727e-16   1.729e-16   -15.763   -15.762     0.000     42.42
Na            1.069e-03
   Na+             1.067e-03   9.917e-04    -2.972    -3.004    -0.032     -1.70
   NaSO4-          7.210e-07   6.706e-07    -6.142    -6.174    -0.031     14.19
   NaHCO3          6.341e-07   6.348e-07    -6.198    -6.197     0.000      1.80
   NaCO3-          2.045e-08   1.898e-08    -7.689    -7.722    -0.032     -1.48
   NaF             1.808e-09   1.810e-09    -8.743    -8.742     0.000      7.06
   NaHPO4-         4.246e-11   3.949e-11   -10.372   -10.404    -0.031     33.91
   NaOH            1.933e-20   1.935e-20   -19.714   -19.713     0.000     (0)  
Ntg           5.533e-04
   Ntg             5.533e-04   5.540e-04    -3.257    -3.257     0.000     29.29
O(0)          5.661e-04
   O2              2.830e-04   2.833e-04    -3.548    -3.548     0.000     29.99
Oxg           2.900e-04
   Oxg             2.900e-04   2.903e-04    -3.538    -3.537     0.000     29.99
P             5.150e-08
   HPO4-2          2.735e-08   2.042e-08    -7.563    -7.690    -0.127      6.99
   H2PO4-          1.286e-08   1.196e-08    -7.891    -7.922    -0.031     33.36
   CaHPO4          8.218e-09   8.227e-09    -8.085    -8.085     0.000     (0)  
   MgHPO4          2.056e-09   2.058e-09    -8.687    -8.686     0.000     (0)  
   CaPO4-          5.389e-10   5.012e-10    -9.268    -9.300    -0.031     (0)  
   CaH2PO4+        2.410e-10   2.242e-10    -9.618    -9.649    -0.031     (0)  
   MgPO4-          1.345e-10   1.251e-10    -9.871    -9.903    -0.031     (0)  
   MgH2PO4+        5.679e-11   5.282e-11   -10.246   -10.277    -0.031     (0)  
   NaHPO4-         4.246e-11   3.949e-11   -10.372   -10.404    -0.031     33.91
   KHPO4-          2.923e-12   2.719e-12   -11.534   -11.566    -0.031     38.52
   PO4-3           4.613e-13   2.357e-13   -12.336   -12.628    -0.292    -22.51
   H3PO4           5.858e-14   5.865e-14   -13.232   -13.232     0.000     47.12
   FeHPO4+         5.627e-18   5.230e-18   -17.250   -17.281    -0.032     (0)  
   FeH2PO4+2       4.814e-18   3.603e-18   -17.318   -17.443    -0.126     (0)  
   FeHPO4          3.183e-20   3.187e-20   -19.497   -19.497     0.000     (0)  
   FeH2PO4+        2.526e-21   2.349e-21   -20.598   -20.629    -0.031     (0)  
S(-2)         0.000e+00
   HS-             0.000e+00   0.000e+00  -145.255  -145.288    -0.033     20.39
   H2S             0.000e+00   0.000e+00  -145.731  -145.731     0.000     37.14
   S-2             0.000e+00   0.000e+00  -150.775  -150.902    -0.127     (0)  
   Fe(HS)2         0.000e+00   0.000e+00  -297.032  -297.032     0.000     (0)  
   Fe(HS)3-        0.000e+00   0.000e+00  -440.250  -440.282    -0.032     (0)  
S(6)          2.109e-04
   SO4-2           1.866e-04   1.393e-04    -3.729    -3.856    -0.127     13.95
   CaSO4           1.922e-05   1.924e-05    -4.716    -4.716     0.000      7.30
   MgSO4           4.280e-06   4.285e-06    -5.369    -5.368     0.000      5.64
   NaSO4-          7.210e-07   6.706e-07    -6.142    -6.174    -0.031     14.19
   KSO4-           6.585e-08   6.125e-08    -7.181    -7.213    -0.031     34.00
   HSO4-           4.643e-10   4.310e-10    -9.333    -9.365    -0.032     39.95
   [N-3]H4SO4-     1.549e-10   1.438e-10    -9.810    -9.842    -0.032     36.08
   MnSO4           1.257e-10   1.258e-10    -9.901    -9.900     0.000     24.87
   CaHSO4+         4.502e-12   4.179e-12   -11.347   -11.379    -0.032     (0)  
   AlSO4+          1.507e-14   1.400e-14   -13.822   -13.854    -0.032     (0)  
   FeSO4+          1.647e-15   1.531e-15   -14.783   -14.815    -0.032     (0)  
   Al(SO4)2-       6.486e-17   6.024e-17   -16.188   -16.220    -0.032     (0)  
   FeSO4           8.852e-18   8.862e-18   -17.053   -17.052     0.000     24.48
   Fe(SO4)2-       4.927e-18   4.573e-18   -17.307   -17.340    -0.032     (0)  
   FeHSO4+2        1.962e-22   1.457e-22   -21.707   -21.837    -0.129     (0)  
   AlHSO4+2        5.677e-23   4.216e-23   -22.246   -22.375    -0.129     (0)  
   FeHSO4+         2.188e-24   2.031e-24   -23.660   -23.692    -0.032     (0)  
   NH4SO4-         0.000e+00   0.000e+00   -68.673   -68.705    -0.032     36.08
Si            1.942e-04
   H4SiO4          1.935e-04   1.937e-04    -3.713    -3.713     0.000     52.52
   H3SiO4-         7.301e-07   6.776e-07    -6.137    -6.169    -0.032     27.87
   H2SiO4-2        1.254e-12   9.387e-13   -11.902   -12.027    -0.126     (0)  
   SiF6-2          9.884e-37   7.379e-37   -36.005   -36.132    -0.127     42.37
Turb          2.020e-04
   Turb            2.020e-04   2.022e-04    -3.695    -3.694     0.000     (0)  
Uvab          1.066e-02
   Uvab            1.066e-02   1.067e-02    -1.972    -1.972     0.000     (0)  
[N+3]         7.141e-12
   [N+3]O2-        7.141e-12   6.617e-12   -11.146   -11.179    -0.033     24.73
[N-3]         8.765e-08
   [N-3]H4+        8.658e-08   8.017e-08    -7.063    -7.096    -0.033     17.83
   [N-3]H3         9.077e-10   9.087e-10    -9.042    -9.042     0.000     24.19
   [N-3]H4SO4-     1.549e-10   1.438e-10    -9.810    -9.842    -0.032     36.08

--------------------------Distribution of alkalinity---------------------------

	Total alkalinity (eq/kgw)  =   1.216e-03

	Species          Alkalinity    Molality   Alk/Mol

	HCO3-             1.190e-03   1.190e-03      1.00
	CaHCO3+           1.126e-05   1.126e-05      1.00
	CO3-2             3.531e-06   1.766e-06      2.00
	Fe(OH)3           3.460e-06   3.460e-06      1.00
	CaCO3             3.270e-06   1.635e-06      2.00
	MgHCO3+           2.042e-06   2.042e-06      1.00
	H3SiO4-           7.301e-07   7.301e-07      1.00
	NaHCO3            6.341e-07   6.341e-07      1.00
	Al(OH)4-          6.112e-07   1.528e-07      4.00
	MgCO3             3.486e-07   1.743e-07      2.00
	OH-               2.104e-07   2.104e-07      1.00
	Fe(OH)4-          1.573e-07   7.863e-08      2.00
	NaCO3-            4.089e-08   2.045e-08      2.00
	H+               -3.782e-08   3.782e-08     -1.00
	HPO4-2            2.735e-08   2.735e-08      1.00
	MgOH+             1.049e-08   1.049e-08      1.00
	Al(OH)3           8.472e-09   2.824e-09      3.00
	CaHPO4            8.218e-09   8.218e-09      1.00
	CaOH+             4.077e-09   4.077e-09      1.00
	Al(OH)2+          2.118e-09   1.059e-09      2.00
	MgHPO4            2.056e-09   2.056e-09      1.00
	MnCO3             1.171e-09   5.857e-10      2.00
	CaPO4-            1.078e-09   5.389e-10      2.00
	[N-3]H3           9.077e-10   9.077e-10      1.00
	MnHCO3+           5.928e-10   5.928e-10      1.00
	HSO4-            -4.643e-10   4.643e-10     -1.00
	MgPO4-            2.690e-10   1.345e-10      2.00
	FeOH+2           -2.042e-10   2.042e-10     -1.00
	HF               -1.539e-10   1.539e-10     -1.00
	NaHPO4-           4.246e-11   4.246e-11      1.00
	AlOH+2            9.224e-12   9.224e-12      1.00
	CaHSO4+          -4.502e-12   4.502e-12     -1.00
	KHPO4-            2.923e-12   2.923e-12      1.00
	MnOH+             2.911e-12   2.911e-12      1.00
	H2SiO4-2          2.509e-12   1.254e-12      2.00
	PO4-3             9.226e-13   4.613e-13      2.00
	H3PO4            -5.858e-14   5.858e-14     -1.00
	FeF+2            -1.397e-14   6.984e-15     -2.00
	Fe+3             -4.111e-15   2.055e-15     -2.00
	FeSO4+           -3.294e-15   1.647e-15     -2.00
	HF2-             -1.939e-15   1.939e-15     -1.00
	FeF2+            -1.335e-15   6.675e-16     -2.00
	FeCl+2           -1.054e-16   5.269e-17     -2.00
	FeHCO3+           4.673e-17   4.673e-17      1.00
	FeCO3             2.482e-17   1.241e-17      2.00
	Fe(SO4)2-        -9.854e-18   4.927e-18     -2.00
	FeH2PO4+2        -9.628e-18   4.814e-18     -2.00
	FeF3             -6.125e-18   3.063e-18     -2.00
	FeHPO4+          -5.627e-18   5.627e-18     -1.00
	Fe2(OH)2+4       -5.053e-18   2.527e-18     -2.00
	FeOH+             2.599e-18   2.599e-18      1.00
	FeCl2+           -6.033e-19   3.017e-19     -2.00
	FeHPO4            3.183e-20   3.183e-20      1.00
	NaOH              1.933e-20   1.933e-20      1.00
	Mn(OH)3-          6.462e-21   2.154e-21      3.00
	Fe3(OH)4+5       -3.859e-21   1.930e-21     -2.00
	Fe(OH)2           7.531e-22   3.766e-22      2.00
	FeHSO4+2         -5.887e-22   1.962e-22     -3.00
	FeCl3            -7.634e-23   3.817e-23     -2.00
	AlHSO4+2         -5.677e-23   5.677e-23     -1.00
	FeHSO4+          -2.188e-24   2.188e-24     -1.00
	Fe(OH)3-          1.217e-24   4.057e-25      3.00
	SiF6-2           -3.953e-36   9.884e-37     -4.00
	Fe(HS)2           0.000e+00   0.000e+00      2.00
	S-2               0.000e+00   0.000e+00      2.00
	NH3               0.000e+00   0.000e+00      1.00
	Fe(HS)3-          0.000e+00   0.000e+00      3.00
	HS-               0.000e+00   0.000e+00      1.00

------------------------------Saturation indices-------------------------------

  Phase               SI** log IAP   log K(293 K,   1 atm)

  [N-3]H3(g)      -10.94     -9.04    1.90  [N-3]H3
  Al(OH)3(a)       -2.24      8.88   11.12  Al(OH)3
  Albite           -2.67    -20.99  -18.32  NaAlSi3O8
  Alunite          -6.79     -7.58   -0.78  KAl3(SO4)2(OH)6
  Anhydrite        -2.73     -6.95   -4.22  CaSO4
  Anorthite        -4.36    -24.21  -19.86  CaAl2Si2O8
  Aragonite        -0.67     -8.97   -8.31  CaCO3
  Ca-Montmorillonite   0.75    -44.99  -45.74  Ca0.165Al2.33Si3.67O10(OH)2
  Calcite          -0.52     -8.97   -8.45  CaCO3
  CH4(g)         -144.53   -147.33   -2.80  CH4
  Chalcedony       -0.10     -3.71   -3.61  SiO2
  Chlorite(14A)    -8.22     62.02   70.24  Mg5Al2Si3O10(OH)8
  Chrysotile       -7.01     25.81   32.82  Mg3Si2O5(OH)4
  CO2(g)           -2.62     -4.03   -1.40  CO2
  Dolomite         -1.70    -18.68  -16.97  CaMg(CO3)2
  Fe(OH)3(a)        2.51      7.40    4.89  Fe(OH)3
  FeS(ppt)       -149.33   -153.24   -3.92  FeS
  Fluorite         -3.43    -14.09  -10.66  CaF2
  Gibbsite          0.50      8.88    8.39  Al(OH)3
  Goethite          8.23      7.40   -0.82  FeOOH
  Gypsum           -2.37     -6.95   -4.58  CaSO4:2H2O
  H2(g)           -42.13    -45.22   -3.09  H2
  H2O(g)           -1.63     -0.00    1.63  H2O
  H2S(g)         -144.73   -152.74   -8.00  H2S
  Halite           -7.44     -5.87    1.57  NaCl
  Hausmannite      -0.22     62.04   62.26  Mn3O4
  Hematite         18.44     14.81   -3.63  Fe2O3
  Hydroxyapatite   -5.75     -8.73   -2.98  Ca5(PO4)3OH
  Illite           -0.20    -41.14  -40.94  K0.6Mg0.25Al2.3Si3.5O10(OH)2
  Jarosite-K       -3.20    -12.02   -8.83  KFe3(SO4)2(OH)6
  K-feldspar       -1.20    -22.15  -20.95  KAlSi3O8
  K-mica            5.37     18.80   13.43  KAl3Si3O10(OH)2
  Kaolinite         2.48     10.34    7.87  Al2Si2O5(OH)4
  Mackinawite    -148.59   -153.24   -4.65  FeS
  Manganite         2.36     27.70   25.34  MnOOH
  Melanterite     -16.99    -19.26   -2.27  FeSO4:7H2O
  N2(g)           -19.43    -22.57   -3.14  N2
  NH3(g)          -69.80    -67.90    1.90  NH3
  Ntg(g)           -0.11     -3.26   -3.14  Ntg
  O2(g)            -0.69     -3.55   -2.86  O2
  Oxg(g)           -0.68     -3.54   -2.86  Oxg
  Pyrite         -245.27   -263.89  -18.62  FeS2
  Pyrochroite      -8.55      6.65   15.20  Mn(OH)2
  Pyrolusite        6.56     48.74   42.18  MnO2:H2O
  Quartz            0.34     -3.71   -4.05  SiO2
  Rhodochrosite    -3.02    -14.13  -11.11  MnCO3
  Sepiolite        -4.88     11.02   15.89  Mg2Si3O7.5OH:3H2O
  Sepiolite(d)     -7.64     11.02   18.66  Mg2Si3O7.5OH:3H2O
  Siderite        -10.43    -21.29  -10.86  FeCO3
  SiO2(a)          -0.96     -3.71   -2.75  SiO2
  Sulfur         -108.64   -103.64    5.00  S
  Sylvite          -7.91     -7.03    0.88  KCl
  Talc             -3.59     18.38   21.97  Mg3Si4O10(OH)2
  Vaterite         -1.10     -8.97   -7.87  CaCO3
  Vivianite       -35.48    -71.48  -36.00  Fe3(PO4)2:8H2O

**For a gas, SI = log10(fugacity). Fugacity = pressure * phi / 1 atm.
  For ideal gases, phi = 1.

------------------
End of simulation.
------------------

-------------------------------------
Reading input data for simulation 26.
-------------------------------------

-------------------------------
End of Run after 1.518 Seconds.
-------------------------------

